
---------- Begin Simulation Statistics ----------
simSeconds                                   0.003184                       # Number of seconds simulated (Second)
simTicks                                   3184453500                       # Number of ticks simulated (Tick)
finalTick                                  3184453500                       # Number of ticks from beginning of simulation (restored from checkpoints and never reset) (Tick)
simFreq                                  1000000000000                       # The number of ticks per simulated second ((Tick/Second))
hostSeconds                                     83.72                       # Real time elapsed on the host (Second)
hostTickRate                                 38036100                       # The number of ticks simulated per host second (ticks/s) ((Tick/Second))
hostMemory                                    8721304                       # Number of bytes of host memory used (Byte)
simInsts                                     10000004                       # Number of instructions simulated (Count)
simOps                                       18302657                       # Number of ops (including micro ops) simulated (Count)
hostInstRate                                   119443                       # Simulator instruction rate (inst/s) ((Count/Second))
hostOpRate                                     218612                       # Simulator op (including micro ops) rate (op/s) ((Count/Second))
system.clk_domain.clock                          1000                       # Clock period in ticks (Tick)
system.cpu.numCycles                          6368908                       # Number of cpu cycles simulated (Cycle)
system.cpu.numWorkItemsStarted                      0                       # Number of work items this cpu started (Count)
system.cpu.numWorkItemsCompleted                    0                       # Number of work items this cpu completed (Count)
system.cpu.instsAdded                        19374571                       # Number of instructions added to the IQ (excludes non-spec) (Count)
system.cpu.nonSpecInstsAdded                      143                       # Number of non-speculative instructions added to the IQ (Count)
system.cpu.instsIssued                       18956071                       # Number of instructions issued (Count)
system.cpu.squashedInstsIssued                   1742                       # Number of squashed instructions issued (Count)
system.cpu.squashedInstsExamined              1071941                       # Number of squashed instructions iterated over during squash; mainly for profiling (Count)
system.cpu.squashedOperandsExamined           2486743                       # Number of squashed operands that are examined and possibly removed from graph (Count)
system.cpu.squashedNonSpecRemoved                  62                       # Number of squashed non-spec instructions that were removed (Count)
system.cpu.numIssuedDist::samples             6324045                       # Number of insts issued each cycle (Count)
system.cpu.numIssuedDist::mean               2.997460                       # Number of insts issued each cycle (Count)
system.cpu.numIssuedDist::stdev              2.093157                       # Number of insts issued each cycle (Count)
system.cpu.numIssuedDist::underflows                0      0.00%      0.00% # Number of insts issued each cycle (Count)
system.cpu.numIssuedDist::0                    923113     14.60%     14.60% # Number of insts issued each cycle (Count)
system.cpu.numIssuedDist::1                   1053084     16.65%     31.25% # Number of insts issued each cycle (Count)
system.cpu.numIssuedDist::2                    727041     11.50%     42.75% # Number of insts issued each cycle (Count)
system.cpu.numIssuedDist::3                    831413     13.15%     55.89% # Number of insts issued each cycle (Count)
system.cpu.numIssuedDist::4                   1106271     17.49%     73.39% # Number of insts issued each cycle (Count)
system.cpu.numIssuedDist::5                   1033899     16.35%     89.73% # Number of insts issued each cycle (Count)
system.cpu.numIssuedDist::6                    245547      3.88%     93.62% # Number of insts issued each cycle (Count)
system.cpu.numIssuedDist::7                    342611      5.42%     99.03% # Number of insts issued each cycle (Count)
system.cpu.numIssuedDist::8                     61066      0.97%    100.00% # Number of insts issued each cycle (Count)
system.cpu.numIssuedDist::overflows                 0      0.00%    100.00% # Number of insts issued each cycle (Count)
system.cpu.numIssuedDist::min_value                 0                       # Number of insts issued each cycle (Count)
system.cpu.numIssuedDist::max_value                 8                       # Number of insts issued each cycle (Count)
system.cpu.numIssuedDist::total               6324045                       # Number of insts issued each cycle (Count)
system.cpu.statFuBusy::No_OpClass                   0      0.00%      0.00% # attempts to use FU when none available (Count)
system.cpu.statFuBusy::IntAlu                   20138      8.25%      8.25% # attempts to use FU when none available (Count)
system.cpu.statFuBusy::IntMult                      0      0.00%      8.25% # attempts to use FU when none available (Count)
system.cpu.statFuBusy::IntDiv                       0      0.00%      8.25% # attempts to use FU when none available (Count)
system.cpu.statFuBusy::FloatAdd                     0      0.00%      8.25% # attempts to use FU when none available (Count)
system.cpu.statFuBusy::FloatCmp                     0      0.00%      8.25% # attempts to use FU when none available (Count)
system.cpu.statFuBusy::FloatCvt                     0      0.00%      8.25% # attempts to use FU when none available (Count)
system.cpu.statFuBusy::FloatMult                    0      0.00%      8.25% # attempts to use FU when none available (Count)
system.cpu.statFuBusy::FloatMultAcc                 0      0.00%      8.25% # attempts to use FU when none available (Count)
system.cpu.statFuBusy::FloatDiv                     0      0.00%      8.25% # attempts to use FU when none available (Count)
system.cpu.statFuBusy::FloatMisc                    0      0.00%      8.25% # attempts to use FU when none available (Count)
system.cpu.statFuBusy::FloatSqrt                    0      0.00%      8.25% # attempts to use FU when none available (Count)
system.cpu.statFuBusy::SimdAdd                      0      0.00%      8.25% # attempts to use FU when none available (Count)
system.cpu.statFuBusy::SimdAddAcc                   0      0.00%      8.25% # attempts to use FU when none available (Count)
system.cpu.statFuBusy::SimdAlu                      0      0.00%      8.25% # attempts to use FU when none available (Count)
system.cpu.statFuBusy::SimdCmp                      0      0.00%      8.25% # attempts to use FU when none available (Count)
system.cpu.statFuBusy::SimdCvt                      0      0.00%      8.25% # attempts to use FU when none available (Count)
system.cpu.statFuBusy::SimdMisc                     0      0.00%      8.25% # attempts to use FU when none available (Count)
system.cpu.statFuBusy::SimdMult                     0      0.00%      8.25% # attempts to use FU when none available (Count)
system.cpu.statFuBusy::SimdMultAcc                  0      0.00%      8.25% # attempts to use FU when none available (Count)
system.cpu.statFuBusy::SimdShift                    0      0.00%      8.25% # attempts to use FU when none available (Count)
system.cpu.statFuBusy::SimdShiftAcc                 0      0.00%      8.25% # attempts to use FU when none available (Count)
system.cpu.statFuBusy::SimdDiv                      0      0.00%      8.25% # attempts to use FU when none available (Count)
system.cpu.statFuBusy::SimdSqrt                     0      0.00%      8.25% # attempts to use FU when none available (Count)
system.cpu.statFuBusy::SimdFloatAdd                 0      0.00%      8.25% # attempts to use FU when none available (Count)
system.cpu.statFuBusy::SimdFloatAlu                 0      0.00%      8.25% # attempts to use FU when none available (Count)
system.cpu.statFuBusy::SimdFloatCmp                 0      0.00%      8.25% # attempts to use FU when none available (Count)
system.cpu.statFuBusy::SimdFloatCvt                 0      0.00%      8.25% # attempts to use FU when none available (Count)
system.cpu.statFuBusy::SimdFloatDiv                 0      0.00%      8.25% # attempts to use FU when none available (Count)
system.cpu.statFuBusy::SimdFloatMisc                0      0.00%      8.25% # attempts to use FU when none available (Count)
system.cpu.statFuBusy::SimdFloatMult                0      0.00%      8.25% # attempts to use FU when none available (Count)
system.cpu.statFuBusy::SimdFloatMultAcc             0      0.00%      8.25% # attempts to use FU when none available (Count)
system.cpu.statFuBusy::SimdFloatSqrt                0      0.00%      8.25% # attempts to use FU when none available (Count)
system.cpu.statFuBusy::SimdReduceAdd                0      0.00%      8.25% # attempts to use FU when none available (Count)
system.cpu.statFuBusy::SimdReduceAlu                0      0.00%      8.25% # attempts to use FU when none available (Count)
system.cpu.statFuBusy::SimdReduceCmp                0      0.00%      8.25% # attempts to use FU when none available (Count)
system.cpu.statFuBusy::SimdFloatReduceAdd            0      0.00%      8.25% # attempts to use FU when none available (Count)
system.cpu.statFuBusy::SimdFloatReduceCmp            0      0.00%      8.25% # attempts to use FU when none available (Count)
system.cpu.statFuBusy::SimdAes                      0      0.00%      8.25% # attempts to use FU when none available (Count)
system.cpu.statFuBusy::SimdAesMix                   0      0.00%      8.25% # attempts to use FU when none available (Count)
system.cpu.statFuBusy::SimdSha1Hash                 0      0.00%      8.25% # attempts to use FU when none available (Count)
system.cpu.statFuBusy::SimdSha1Hash2                0      0.00%      8.25% # attempts to use FU when none available (Count)
system.cpu.statFuBusy::SimdSha256Hash               0      0.00%      8.25% # attempts to use FU when none available (Count)
system.cpu.statFuBusy::SimdSha256Hash2              0      0.00%      8.25% # attempts to use FU when none available (Count)
system.cpu.statFuBusy::SimdShaSigma2                0      0.00%      8.25% # attempts to use FU when none available (Count)
system.cpu.statFuBusy::SimdShaSigma3                0      0.00%      8.25% # attempts to use FU when none available (Count)
system.cpu.statFuBusy::SimdPredAlu                  0      0.00%      8.25% # attempts to use FU when none available (Count)
system.cpu.statFuBusy::MemRead                 201912     82.69%     90.94% # attempts to use FU when none available (Count)
system.cpu.statFuBusy::MemWrite                 19958      8.17%     99.12% # attempts to use FU when none available (Count)
system.cpu.statFuBusy::FloatMemRead              2158      0.88%    100.00% # attempts to use FU when none available (Count)
system.cpu.statFuBusy::FloatMemWrite                2      0.00%    100.00% # attempts to use FU when none available (Count)
system.cpu.statFuBusy::IprAccess                    0      0.00%    100.00% # attempts to use FU when none available (Count)
system.cpu.statFuBusy::InstPrefetch                 0      0.00%    100.00% # attempts to use FU when none available (Count)
system.cpu.statIssuedInstType_0::No_OpClass         7750      0.04%      0.04% # Number of instructions issued per FU type, per thread (Count)
system.cpu.statIssuedInstType_0::IntAlu      12831649     67.69%     67.73% # Number of instructions issued per FU type, per thread (Count)
system.cpu.statIssuedInstType_0::IntMult          201      0.00%     67.73% # Number of instructions issued per FU type, per thread (Count)
system.cpu.statIssuedInstType_0::IntDiv         24785      0.13%     67.86% # Number of instructions issued per FU type, per thread (Count)
system.cpu.statIssuedInstType_0::FloatAdd       245947      1.30%     69.16% # Number of instructions issued per FU type, per thread (Count)
system.cpu.statIssuedInstType_0::FloatCmp            0      0.00%     69.16% # Number of instructions issued per FU type, per thread (Count)
system.cpu.statIssuedInstType_0::FloatCvt          160      0.00%     69.16% # Number of instructions issued per FU type, per thread (Count)
system.cpu.statIssuedInstType_0::FloatMult            0      0.00%     69.16% # Number of instructions issued per FU type, per thread (Count)
system.cpu.statIssuedInstType_0::FloatMultAcc            0      0.00%     69.16% # Number of instructions issued per FU type, per thread (Count)
system.cpu.statIssuedInstType_0::FloatDiv            0      0.00%     69.16% # Number of instructions issued per FU type, per thread (Count)
system.cpu.statIssuedInstType_0::FloatMisc            0      0.00%     69.16% # Number of instructions issued per FU type, per thread (Count)
system.cpu.statIssuedInstType_0::FloatSqrt            0      0.00%     69.16% # Number of instructions issued per FU type, per thread (Count)
system.cpu.statIssuedInstType_0::SimdAdd            0      0.00%     69.16% # Number of instructions issued per FU type, per thread (Count)
system.cpu.statIssuedInstType_0::SimdAddAcc            0      0.00%     69.16% # Number of instructions issued per FU type, per thread (Count)
system.cpu.statIssuedInstType_0::SimdAlu            2      0.00%     69.16% # Number of instructions issued per FU type, per thread (Count)
system.cpu.statIssuedInstType_0::SimdCmp            0      0.00%     69.16% # Number of instructions issued per FU type, per thread (Count)
system.cpu.statIssuedInstType_0::SimdCvt           16      0.00%     69.16% # Number of instructions issued per FU type, per thread (Count)
system.cpu.statIssuedInstType_0::SimdMisc        40048      0.21%     69.37% # Number of instructions issued per FU type, per thread (Count)
system.cpu.statIssuedInstType_0::SimdMult            0      0.00%     69.37% # Number of instructions issued per FU type, per thread (Count)
system.cpu.statIssuedInstType_0::SimdMultAcc            0      0.00%     69.37% # Number of instructions issued per FU type, per thread (Count)
system.cpu.statIssuedInstType_0::SimdShift            0      0.00%     69.37% # Number of instructions issued per FU type, per thread (Count)
system.cpu.statIssuedInstType_0::SimdShiftAcc            0      0.00%     69.37% # Number of instructions issued per FU type, per thread (Count)
system.cpu.statIssuedInstType_0::SimdDiv            0      0.00%     69.37% # Number of instructions issued per FU type, per thread (Count)
system.cpu.statIssuedInstType_0::SimdSqrt            0      0.00%     69.37% # Number of instructions issued per FU type, per thread (Count)
system.cpu.statIssuedInstType_0::SimdFloatAdd            0      0.00%     69.37% # Number of instructions issued per FU type, per thread (Count)
system.cpu.statIssuedInstType_0::SimdFloatAlu            0      0.00%     69.37% # Number of instructions issued per FU type, per thread (Count)
system.cpu.statIssuedInstType_0::SimdFloatCmp            0      0.00%     69.37% # Number of instructions issued per FU type, per thread (Count)
system.cpu.statIssuedInstType_0::SimdFloatCvt       263796      1.39%     70.77% # Number of instructions issued per FU type, per thread (Count)
system.cpu.statIssuedInstType_0::SimdFloatDiv        20023      0.11%     70.87% # Number of instructions issued per FU type, per thread (Count)
system.cpu.statIssuedInstType_0::SimdFloatMisc            0      0.00%     70.87% # Number of instructions issued per FU type, per thread (Count)
system.cpu.statIssuedInstType_0::SimdFloatMult            0      0.00%     70.87% # Number of instructions issued per FU type, per thread (Count)
system.cpu.statIssuedInstType_0::SimdFloatMultAcc            0      0.00%     70.87% # Number of instructions issued per FU type, per thread (Count)
system.cpu.statIssuedInstType_0::SimdFloatSqrt            0      0.00%     70.87% # Number of instructions issued per FU type, per thread (Count)
system.cpu.statIssuedInstType_0::SimdReduceAdd            0      0.00%     70.87% # Number of instructions issued per FU type, per thread (Count)
system.cpu.statIssuedInstType_0::SimdReduceAlu            0      0.00%     70.87% # Number of instructions issued per FU type, per thread (Count)
system.cpu.statIssuedInstType_0::SimdReduceCmp            0      0.00%     70.87% # Number of instructions issued per FU type, per thread (Count)
system.cpu.statIssuedInstType_0::SimdFloatReduceAdd            0      0.00%     70.87% # Number of instructions issued per FU type, per thread (Count)
system.cpu.statIssuedInstType_0::SimdFloatReduceCmp            0      0.00%     70.87% # Number of instructions issued per FU type, per thread (Count)
system.cpu.statIssuedInstType_0::SimdAes            0      0.00%     70.87% # Number of instructions issued per FU type, per thread (Count)
system.cpu.statIssuedInstType_0::SimdAesMix            0      0.00%     70.87% # Number of instructions issued per FU type, per thread (Count)
system.cpu.statIssuedInstType_0::SimdSha1Hash            0      0.00%     70.87% # Number of instructions issued per FU type, per thread (Count)
system.cpu.statIssuedInstType_0::SimdSha1Hash2            0      0.00%     70.87% # Number of instructions issued per FU type, per thread (Count)
system.cpu.statIssuedInstType_0::SimdSha256Hash            0      0.00%     70.87% # Number of instructions issued per FU type, per thread (Count)
system.cpu.statIssuedInstType_0::SimdSha256Hash2            0      0.00%     70.87% # Number of instructions issued per FU type, per thread (Count)
system.cpu.statIssuedInstType_0::SimdShaSigma2            0      0.00%     70.87% # Number of instructions issued per FU type, per thread (Count)
system.cpu.statIssuedInstType_0::SimdShaSigma3            0      0.00%     70.87% # Number of instructions issued per FU type, per thread (Count)
system.cpu.statIssuedInstType_0::SimdPredAlu            0      0.00%     70.87% # Number of instructions issued per FU type, per thread (Count)
system.cpu.statIssuedInstType_0::MemRead      3463055     18.27%     89.14% # Number of instructions issued per FU type, per thread (Count)
system.cpu.statIssuedInstType_0::MemWrite      1586339      8.37%     97.51% # Number of instructions issued per FU type, per thread (Count)
system.cpu.statIssuedInstType_0::FloatMemRead       471988      2.49%    100.00% # Number of instructions issued per FU type, per thread (Count)
system.cpu.statIssuedInstType_0::FloatMemWrite          312      0.00%    100.00% # Number of instructions issued per FU type, per thread (Count)
system.cpu.statIssuedInstType_0::IprAccess            0      0.00%    100.00% # Number of instructions issued per FU type, per thread (Count)
system.cpu.statIssuedInstType_0::InstPrefetch            0      0.00%    100.00% # Number of instructions issued per FU type, per thread (Count)
system.cpu.statIssuedInstType_0::total       18956071                       # Number of instructions issued per FU type, per thread (Count)
system.cpu.issueRate                         2.976346                       # Inst issue rate ((Count/Cycle))
system.cpu.fuBusy                              244168                       # FU busy when requested (Count)
system.cpu.fuBusyRate                        0.012881                       # FU busy rate (busy events/executed inst) ((Count/Count))
system.cpu.intInstQueueReads                 42395331                       # Number of integer instruction queue reads (Count)
system.cpu.intInstQueueWrites                19385185                       # Number of integer instruction queue writes (Count)
system.cpu.intInstQueueWakeupAccesses        17864394                       # Number of integer instruction queue wakeup accesses (Count)
system.cpu.fpInstQueueReads                   2086761                       # Number of floating instruction queue reads (Count)
system.cpu.fpInstQueueWrites                  1061634                       # Number of floating instruction queue writes (Count)
system.cpu.fpInstQueueWakeupAccesses          1042154                       # Number of floating instruction queue wakeup accesses (Count)
system.cpu.vecInstQueueReads                        0                       # Number of vector instruction queue reads (Count)
system.cpu.vecInstQueueWrites                       0                       # Number of vector instruction queue writes (Count)
system.cpu.vecInstQueueWakeupAccesses               0                       # Number of vector instruction queue wakeup accesses (Count)
system.cpu.intAluAccesses                    18148028                       # Number of integer alu accesses (Count)
system.cpu.fpAluAccesses                      1044461                       # Number of floating point alu accesses (Count)
system.cpu.vecAluAccesses                           0                       # Number of vector alu accesses (Count)
system.cpu.numInsts                          18926006                       # Number of executed instructions (Count)
system.cpu.numLoadInsts                       3929161                       # Number of load instructions executed (Count)
system.cpu.numSquashedInsts                     30060                       # Number of squashed instructions skipped in execute (Count)
system.cpu.numSwp                                   0                       # Number of swp insts executed (Count)
system.cpu.numNop                                   0                       # Number of nop insts executed (Count)
system.cpu.numRefs                            5512571                       # Number of memory reference insts executed (Count)
system.cpu.numBranches                        1825461                       # Number of branches executed (Count)
system.cpu.numStoreInsts                      1583410                       # Number of stores executed (Count)
system.cpu.numRate                           2.971625                       # Inst execution rate ((Count/Cycle))
system.cpu.timesIdled                             528                       # Number of times that the entire CPU went into an idle state and unscheduled itself (Count)
system.cpu.idleCycles                           44863                       # Total number of cycles that the CPU has spent unscheduled due to idling (Cycle)
system.cpu.committedInsts                    10000004                       # Number of Instructions Simulated (Count)
system.cpu.committedOps                      18302657                       # Number of Ops (including micro ops) Simulated (Count)
system.cpu.cpi                               0.636891                       # CPI: Cycles Per Instruction ((Cycle/Count))
system.cpu.totalCpi                          0.636891                       # CPI: Total CPI of All Threads ((Cycle/Count))
system.cpu.ipc                               1.570129                       # IPC: Instructions Per Cycle ((Count/Cycle))
system.cpu.totalIpc                          1.570129                       # IPC: Total IPC of All Threads ((Count/Cycle))
system.cpu.intRegfileReads                   23725674                       # Number of integer regfile reads (Count)
system.cpu.intRegfileWrites                  13524018                       # Number of integer regfile writes (Count)
system.cpu.fpRegfileReads                      628258                       # Number of floating regfile reads (Count)
system.cpu.fpRegfileWrites                     797911                       # Number of floating regfile writes (Count)
system.cpu.ccRegfileReads                     7943527                       # number of cc regfile reads (Count)
system.cpu.ccRegfileWrites                    5917334                       # number of cc regfile writes (Count)
system.cpu.miscRegfileReads                   9302273                       # number of misc regfile reads (Count)
system.cpu.miscRegfileWrites                       81                       # number of misc regfile writes (Count)
system.cpu.MemDepUnit__0.insertedLoads        3994897                       # Number of loads inserted to the mem dependence unit. (Count)
system.cpu.MemDepUnit__0.insertedStores       1606551                       # Number of stores inserted to the mem dependence unit. (Count)
system.cpu.MemDepUnit__0.conflictingLoads      1690489                       # Number of conflicting loads. (Count)
system.cpu.MemDepUnit__0.conflictingStores       413576                       # Number of conflicting stores. (Count)
system.cpu.MemDepUnit__1.insertedLoads              0                       # Number of loads inserted to the mem dependence unit. (Count)
system.cpu.MemDepUnit__1.insertedStores             0                       # Number of stores inserted to the mem dependence unit. (Count)
system.cpu.MemDepUnit__1.conflictingLoads            0                       # Number of conflicting loads. (Count)
system.cpu.MemDepUnit__1.conflictingStores            0                       # Number of conflicting stores. (Count)
system.cpu.MemDepUnit__2.insertedLoads              0                       # Number of loads inserted to the mem dependence unit. (Count)
system.cpu.MemDepUnit__2.insertedStores             0                       # Number of stores inserted to the mem dependence unit. (Count)
system.cpu.MemDepUnit__2.conflictingLoads            0                       # Number of conflicting loads. (Count)
system.cpu.MemDepUnit__2.conflictingStores            0                       # Number of conflicting stores. (Count)
system.cpu.MemDepUnit__3.insertedLoads              0                       # Number of loads inserted to the mem dependence unit. (Count)
system.cpu.MemDepUnit__3.insertedStores             0                       # Number of stores inserted to the mem dependence unit. (Count)
system.cpu.MemDepUnit__3.conflictingLoads            0                       # Number of conflicting loads. (Count)
system.cpu.MemDepUnit__3.conflictingStores            0                       # Number of conflicting stores. (Count)
system.cpu.branchPred.lookups                 1958808                       # Number of BP lookups (Count)
system.cpu.branchPred.condPredicted           1349396                       # Number of conditional branches predicted (Count)
system.cpu.branchPred.condIncorrect             15264                       # Number of conditional branches incorrect (Count)
system.cpu.branchPred.BTBLookups               955450                       # Number of BTB lookups (Count)
system.cpu.branchPred.BTBHits                  949907                       # Number of BTB hits (Count)
system.cpu.branchPred.BTBHitRatio            0.994199                       # BTB Hit Ratio (Ratio)
system.cpu.branchPred.RASUsed                  277786                       # Number of times the RAS was used to get a target. (Count)
system.cpu.branchPred.RASIncorrect                  2                       # Number of incorrect RAS predictions. (Count)
system.cpu.branchPred.indirectLookups           24218                       # Number of indirect predictor lookups. (Count)
system.cpu.branchPred.indirectHits              22904                       # Number of indirect target hits. (Count)
system.cpu.branchPred.indirectMisses             1314                       # Number of indirect misses. (Count)
system.cpu.branchPred.indirectMispredicted          266                       # Number of mispredicted indirect branches. (Count)
system.cpu.commit.commitSquashedInsts         1067655                       # The number of squashed insts skipped by commit (Count)
system.cpu.commit.commitNonSpecStalls              81                       # The number of times commit has been forced to stall to communicate backwards (Count)
system.cpu.commit.branchMispredicts             14897                       # The number of times a branch was mispredicted (Count)
system.cpu.commit.numCommittedDist::samples      6178553                       # Number of insts commited each cycle (Count)
system.cpu.commit.numCommittedDist::mean     2.962289                       # Number of insts commited each cycle (Count)
system.cpu.commit.numCommittedDist::stdev     3.091259                       # Number of insts commited each cycle (Count)
system.cpu.commit.numCommittedDist::underflows            0      0.00%      0.00% # Number of insts commited each cycle (Count)
system.cpu.commit.numCommittedDist::0         1165811     18.87%     18.87% # Number of insts commited each cycle (Count)
system.cpu.commit.numCommittedDist::1         2077187     33.62%     52.49% # Number of insts commited each cycle (Count)
system.cpu.commit.numCommittedDist::2          714605     11.57%     64.05% # Number of insts commited each cycle (Count)
system.cpu.commit.numCommittedDist::3          478617      7.75%     71.80% # Number of insts commited each cycle (Count)
system.cpu.commit.numCommittedDist::4           37353      0.60%     72.40% # Number of insts commited each cycle (Count)
system.cpu.commit.numCommittedDist::5          104005      1.68%     74.09% # Number of insts commited each cycle (Count)
system.cpu.commit.numCommittedDist::6           54174      0.88%     74.96% # Number of insts commited each cycle (Count)
system.cpu.commit.numCommittedDist::7            8480      0.14%     75.10% # Number of insts commited each cycle (Count)
system.cpu.commit.numCommittedDist::8         1538321     24.90%    100.00% # Number of insts commited each cycle (Count)
system.cpu.commit.numCommittedDist::overflows            0      0.00%    100.00% # Number of insts commited each cycle (Count)
system.cpu.commit.numCommittedDist::min_value            0                       # Number of insts commited each cycle (Count)
system.cpu.commit.numCommittedDist::max_value            8                       # Number of insts commited each cycle (Count)
system.cpu.commit.numCommittedDist::total      6178553                       # Number of insts commited each cycle (Count)
system.cpu.commit.instsCommitted             10000004                       # Number of instructions committed (Count)
system.cpu.commit.opsCommitted               18302657                       # Number of ops (including micro ops) committed (Count)
system.cpu.commit.memRefs                     5353302                       # Number of memory references committed (Count)
system.cpu.commit.loads                       3810979                       # Number of loads committed (Count)
system.cpu.commit.amos                              0                       # Number of atomic instructions committed (Count)
system.cpu.commit.membars                           0                       # Number of memory barriers committed (Count)
system.cpu.commit.branches                    1789809                       # Number of branches committed (Count)
system.cpu.commit.vectorInstructions                0                       # Number of committed Vector instructions. (Count)
system.cpu.commit.floating                    1027108                       # Number of committed floating point instructions. (Count)
system.cpu.commit.integer                    17763302                       # Number of committed integer instructions. (Count)
system.cpu.commit.functionCalls                264186                       # Number of function calls committed. (Count)
system.cpu.commit.committedInstType_0::No_OpClass         6314      0.03%      0.03% # Class of committed instruction (Count)
system.cpu.commit.committedInstType_0::IntAlu     12356532     67.51%     67.55% # Class of committed instruction (Count)
system.cpu.commit.committedInstType_0::IntMult          163      0.00%     67.55% # Class of committed instruction (Count)
system.cpu.commit.committedInstType_0::IntDiv        22939      0.13%     67.67% # Class of committed instruction (Count)
system.cpu.commit.committedInstType_0::FloatAdd       241629      1.32%     68.99% # Class of committed instruction (Count)
system.cpu.commit.committedInstType_0::FloatCmp            0      0.00%     68.99% # Class of committed instruction (Count)
system.cpu.commit.committedInstType_0::FloatCvt          144      0.00%     68.99% # Class of committed instruction (Count)
system.cpu.commit.committedInstType_0::FloatMult            0      0.00%     68.99% # Class of committed instruction (Count)
system.cpu.commit.committedInstType_0::FloatMultAcc            0      0.00%     68.99% # Class of committed instruction (Count)
system.cpu.commit.committedInstType_0::FloatDiv            0      0.00%     68.99% # Class of committed instruction (Count)
system.cpu.commit.committedInstType_0::FloatMisc            0      0.00%     68.99% # Class of committed instruction (Count)
system.cpu.commit.committedInstType_0::FloatSqrt            0      0.00%     68.99% # Class of committed instruction (Count)
system.cpu.commit.committedInstType_0::SimdAdd            0      0.00%     68.99% # Class of committed instruction (Count)
system.cpu.commit.committedInstType_0::SimdAddAcc            0      0.00%     68.99% # Class of committed instruction (Count)
system.cpu.commit.committedInstType_0::SimdAlu            2      0.00%     68.99% # Class of committed instruction (Count)
system.cpu.commit.committedInstType_0::SimdCmp            0      0.00%     68.99% # Class of committed instruction (Count)
system.cpu.commit.committedInstType_0::SimdCvt           12      0.00%     68.99% # Class of committed instruction (Count)
system.cpu.commit.committedInstType_0::SimdMisc        40042      0.22%     69.21% # Class of committed instruction (Count)
system.cpu.commit.committedInstType_0::SimdMult            0      0.00%     69.21% # Class of committed instruction (Count)
system.cpu.commit.committedInstType_0::SimdMultAcc            0      0.00%     69.21% # Class of committed instruction (Count)
system.cpu.commit.committedInstType_0::SimdShift            0      0.00%     69.21% # Class of committed instruction (Count)
system.cpu.commit.committedInstType_0::SimdShiftAcc            0      0.00%     69.21% # Class of committed instruction (Count)
system.cpu.commit.committedInstType_0::SimdDiv            0      0.00%     69.21% # Class of committed instruction (Count)
system.cpu.commit.committedInstType_0::SimdSqrt            0      0.00%     69.21% # Class of committed instruction (Count)
system.cpu.commit.committedInstType_0::SimdFloatAdd            0      0.00%     69.21% # Class of committed instruction (Count)
system.cpu.commit.committedInstType_0::SimdFloatAlu            0      0.00%     69.21% # Class of committed instruction (Count)
system.cpu.commit.committedInstType_0::SimdFloatCmp            0      0.00%     69.21% # Class of committed instruction (Count)
system.cpu.commit.committedInstType_0::SimdFloatCvt       261555      1.43%     70.64% # Class of committed instruction (Count)
system.cpu.commit.committedInstType_0::SimdFloatDiv        20023      0.11%     70.75% # Class of committed instruction (Count)
system.cpu.commit.committedInstType_0::SimdFloatMisc            0      0.00%     70.75% # Class of committed instruction (Count)
system.cpu.commit.committedInstType_0::SimdFloatMult            0      0.00%     70.75% # Class of committed instruction (Count)
system.cpu.commit.committedInstType_0::SimdFloatMultAcc            0      0.00%     70.75% # Class of committed instruction (Count)
system.cpu.commit.committedInstType_0::SimdFloatSqrt            0      0.00%     70.75% # Class of committed instruction (Count)
system.cpu.commit.committedInstType_0::SimdReduceAdd            0      0.00%     70.75% # Class of committed instruction (Count)
system.cpu.commit.committedInstType_0::SimdReduceAlu            0      0.00%     70.75% # Class of committed instruction (Count)
system.cpu.commit.committedInstType_0::SimdReduceCmp            0      0.00%     70.75% # Class of committed instruction (Count)
system.cpu.commit.committedInstType_0::SimdFloatReduceAdd            0      0.00%     70.75% # Class of committed instruction (Count)
system.cpu.commit.committedInstType_0::SimdFloatReduceCmp            0      0.00%     70.75% # Class of committed instruction (Count)
system.cpu.commit.committedInstType_0::SimdAes            0      0.00%     70.75% # Class of committed instruction (Count)
system.cpu.commit.committedInstType_0::SimdAesMix            0      0.00%     70.75% # Class of committed instruction (Count)
system.cpu.commit.committedInstType_0::SimdSha1Hash            0      0.00%     70.75% # Class of committed instruction (Count)
system.cpu.commit.committedInstType_0::SimdSha1Hash2            0      0.00%     70.75% # Class of committed instruction (Count)
system.cpu.commit.committedInstType_0::SimdSha256Hash            0      0.00%     70.75% # Class of committed instruction (Count)
system.cpu.commit.committedInstType_0::SimdSha256Hash2            0      0.00%     70.75% # Class of committed instruction (Count)
system.cpu.commit.committedInstType_0::SimdShaSigma2            0      0.00%     70.75% # Class of committed instruction (Count)
system.cpu.commit.committedInstType_0::SimdShaSigma3            0      0.00%     70.75% # Class of committed instruction (Count)
system.cpu.commit.committedInstType_0::SimdPredAlu            0      0.00%     70.75% # Class of committed instruction (Count)
system.cpu.commit.committedInstType_0::MemRead      3347597     18.29%     89.04% # Class of committed instruction (Count)
system.cpu.commit.committedInstType_0::MemWrite      1542011      8.43%     97.47% # Class of committed instruction (Count)
system.cpu.commit.committedInstType_0::FloatMemRead       463382      2.53%    100.00% # Class of committed instruction (Count)
system.cpu.commit.committedInstType_0::FloatMemWrite          312      0.00%    100.00% # Class of committed instruction (Count)
system.cpu.commit.committedInstType_0::IprAccess            0      0.00%    100.00% # Class of committed instruction (Count)
system.cpu.commit.committedInstType_0::InstPrefetch            0      0.00%    100.00% # Class of committed instruction (Count)
system.cpu.commit.committedInstType_0::total     18302657                       # Class of committed instruction (Count)
system.cpu.commit.commitEligibleSamples       1538321                       # number cycles where commit BW limit reached (Cycle)
system.cpu.dcache.demandHits::cpu.data        3900720                       # number of demand (read+write) hits (Count)
system.cpu.dcache.demandHits::total           3900720                       # number of demand (read+write) hits (Count)
system.cpu.dcache.overallHits::cpu.data       3900720                       # number of overall hits (Count)
system.cpu.dcache.overallHits::total          3900720                       # number of overall hits (Count)
system.cpu.dcache.demandMisses::cpu.data        29153                       # number of demand (read+write) misses (Count)
system.cpu.dcache.demandMisses::total           29153                       # number of demand (read+write) misses (Count)
system.cpu.dcache.overallMisses::cpu.data        29153                       # number of overall misses (Count)
system.cpu.dcache.overallMisses::total          29153                       # number of overall misses (Count)
system.cpu.dcache.demandMissLatency::cpu.data   1794772475                       # number of demand (read+write) miss ticks (Tick)
system.cpu.dcache.demandMissLatency::total   1794772475                       # number of demand (read+write) miss ticks (Tick)
system.cpu.dcache.overallMissLatency::cpu.data   1794772475                       # number of overall miss ticks (Tick)
system.cpu.dcache.overallMissLatency::total   1794772475                       # number of overall miss ticks (Tick)
system.cpu.dcache.demandAccesses::cpu.data      3929873                       # number of demand (read+write) accesses (Count)
system.cpu.dcache.demandAccesses::total       3929873                       # number of demand (read+write) accesses (Count)
system.cpu.dcache.overallAccesses::cpu.data      3929873                       # number of overall (read+write) accesses (Count)
system.cpu.dcache.overallAccesses::total      3929873                       # number of overall (read+write) accesses (Count)
system.cpu.dcache.demandMissRate::cpu.data     0.007418                       # miss rate for demand accesses (Ratio)
system.cpu.dcache.demandMissRate::total      0.007418                       # miss rate for demand accesses (Ratio)
system.cpu.dcache.overallMissRate::cpu.data     0.007418                       # miss rate for overall accesses (Ratio)
system.cpu.dcache.overallMissRate::total     0.007418                       # miss rate for overall accesses (Ratio)
system.cpu.dcache.demandAvgMissLatency::cpu.data 61563.903372                       # average overall miss latency in ticks ((Tick/Count))
system.cpu.dcache.demandAvgMissLatency::total 61563.903372                       # average overall miss latency in ticks ((Tick/Count))
system.cpu.dcache.overallAvgMissLatency::cpu.data 61563.903372                       # average overall miss latency ((Tick/Count))
system.cpu.dcache.overallAvgMissLatency::total 61563.903372                       # average overall miss latency ((Tick/Count))
system.cpu.dcache.blockedCycles::no_mshrs        20456                       # number of cycles access was blocked (Cycle)
system.cpu.dcache.blockedCycles::no_targets         1268                       # number of cycles access was blocked (Cycle)
system.cpu.dcache.blockedCauses::no_mshrs          464                       # number of times access was blocked (Count)
system.cpu.dcache.blockedCauses::no_targets            8                       # number of times access was blocked (Count)
system.cpu.dcache.avgBlocked::no_mshrs      44.086207                       # average number of cycles each access was blocked ((Cycle/Count))
system.cpu.dcache.avgBlocked::no_targets   158.500000                       # average number of cycles each access was blocked ((Cycle/Count))
system.cpu.dcache.writebacks::writebacks         1653                       # number of writebacks (Count)
system.cpu.dcache.writebacks::total              1653                       # number of writebacks (Count)
system.cpu.dcache.demandMshrHits::cpu.data        19053                       # number of demand (read+write) MSHR hits (Count)
system.cpu.dcache.demandMshrHits::total         19053                       # number of demand (read+write) MSHR hits (Count)
system.cpu.dcache.overallMshrHits::cpu.data        19053                       # number of overall MSHR hits (Count)
system.cpu.dcache.overallMshrHits::total        19053                       # number of overall MSHR hits (Count)
system.cpu.dcache.demandMshrMisses::cpu.data        10100                       # number of demand (read+write) MSHR misses (Count)
system.cpu.dcache.demandMshrMisses::total        10100                       # number of demand (read+write) MSHR misses (Count)
system.cpu.dcache.overallMshrMisses::cpu.data        10100                       # number of overall MSHR misses (Count)
system.cpu.dcache.overallMshrMisses::total        10100                       # number of overall MSHR misses (Count)
system.cpu.dcache.demandMshrMissLatency::cpu.data    642000975                       # number of demand (read+write) MSHR miss ticks (Tick)
system.cpu.dcache.demandMshrMissLatency::total    642000975                       # number of demand (read+write) MSHR miss ticks (Tick)
system.cpu.dcache.overallMshrMissLatency::cpu.data    642000975                       # number of overall MSHR miss ticks (Tick)
system.cpu.dcache.overallMshrMissLatency::total    642000975                       # number of overall MSHR miss ticks (Tick)
system.cpu.dcache.demandMshrMissRate::cpu.data     0.002570                       # mshr miss ratio for demand accesses (Ratio)
system.cpu.dcache.demandMshrMissRate::total     0.002570                       # mshr miss ratio for demand accesses (Ratio)
system.cpu.dcache.overallMshrMissRate::cpu.data     0.002570                       # mshr miss ratio for overall accesses (Ratio)
system.cpu.dcache.overallMshrMissRate::total     0.002570                       # mshr miss ratio for overall accesses (Ratio)
system.cpu.dcache.demandAvgMshrMissLatency::cpu.data 63564.452970                       # average overall mshr miss latency ((Tick/Count))
system.cpu.dcache.demandAvgMshrMissLatency::total 63564.452970                       # average overall mshr miss latency ((Tick/Count))
system.cpu.dcache.overallAvgMshrMissLatency::cpu.data 63564.452970                       # average overall mshr miss latency ((Tick/Count))
system.cpu.dcache.overallAvgMshrMissLatency::total 63564.452970                       # average overall mshr miss latency ((Tick/Count))
system.cpu.dcache.replacements                   9076                       # number of replacements (Count)
system.cpu.dcache.ReadReq.hits::cpu.data      2360444                       # number of ReadReq hits (Count)
system.cpu.dcache.ReadReq.hits::total         2360444                       # number of ReadReq hits (Count)
system.cpu.dcache.ReadReq.misses::cpu.data        27102                       # number of ReadReq misses (Count)
system.cpu.dcache.ReadReq.misses::total         27102                       # number of ReadReq misses (Count)
system.cpu.dcache.ReadReq.missLatency::cpu.data   1675446500                       # number of ReadReq miss ticks (Tick)
system.cpu.dcache.ReadReq.missLatency::total   1675446500                       # number of ReadReq miss ticks (Tick)
system.cpu.dcache.ReadReq.accesses::cpu.data      2387546                       # number of ReadReq accesses(hits+misses) (Count)
system.cpu.dcache.ReadReq.accesses::total      2387546                       # number of ReadReq accesses(hits+misses) (Count)
system.cpu.dcache.ReadReq.missRate::cpu.data     0.011351                       # miss rate for ReadReq accesses (Ratio)
system.cpu.dcache.ReadReq.missRate::total     0.011351                       # miss rate for ReadReq accesses (Ratio)
system.cpu.dcache.ReadReq.avgMissLatency::cpu.data 61820.031732                       # average ReadReq miss latency ((Tick/Count))
system.cpu.dcache.ReadReq.avgMissLatency::total 61820.031732                       # average ReadReq miss latency ((Tick/Count))
system.cpu.dcache.ReadReq.mshrHits::cpu.data        19044                       # number of ReadReq MSHR hits (Count)
system.cpu.dcache.ReadReq.mshrHits::total        19044                       # number of ReadReq MSHR hits (Count)
system.cpu.dcache.ReadReq.mshrMisses::cpu.data         8058                       # number of ReadReq MSHR misses (Count)
system.cpu.dcache.ReadReq.mshrMisses::total         8058                       # number of ReadReq MSHR misses (Count)
system.cpu.dcache.ReadReq.mshrMissLatency::cpu.data    525126500                       # number of ReadReq MSHR miss ticks (Tick)
system.cpu.dcache.ReadReq.mshrMissLatency::total    525126500                       # number of ReadReq MSHR miss ticks (Tick)
system.cpu.dcache.ReadReq.mshrMissRate::cpu.data     0.003375                       # mshr miss rate for ReadReq accesses (Ratio)
system.cpu.dcache.ReadReq.mshrMissRate::total     0.003375                       # mshr miss rate for ReadReq accesses (Ratio)
system.cpu.dcache.ReadReq.avgMshrMissLatency::cpu.data 65168.342020                       # average ReadReq mshr miss latency ((Tick/Count))
system.cpu.dcache.ReadReq.avgMshrMissLatency::total 65168.342020                       # average ReadReq mshr miss latency ((Tick/Count))
system.cpu.dcache.WriteReq.hits::cpu.data      1540276                       # number of WriteReq hits (Count)
system.cpu.dcache.WriteReq.hits::total        1540276                       # number of WriteReq hits (Count)
system.cpu.dcache.WriteReq.misses::cpu.data         2051                       # number of WriteReq misses (Count)
system.cpu.dcache.WriteReq.misses::total         2051                       # number of WriteReq misses (Count)
system.cpu.dcache.WriteReq.missLatency::cpu.data    119325975                       # number of WriteReq miss ticks (Tick)
system.cpu.dcache.WriteReq.missLatency::total    119325975                       # number of WriteReq miss ticks (Tick)
system.cpu.dcache.WriteReq.accesses::cpu.data      1542327                       # number of WriteReq accesses(hits+misses) (Count)
system.cpu.dcache.WriteReq.accesses::total      1542327                       # number of WriteReq accesses(hits+misses) (Count)
system.cpu.dcache.WriteReq.missRate::cpu.data     0.001330                       # miss rate for WriteReq accesses (Ratio)
system.cpu.dcache.WriteReq.missRate::total     0.001330                       # miss rate for WriteReq accesses (Ratio)
system.cpu.dcache.WriteReq.avgMissLatency::cpu.data 58179.412482                       # average WriteReq miss latency ((Tick/Count))
system.cpu.dcache.WriteReq.avgMissLatency::total 58179.412482                       # average WriteReq miss latency ((Tick/Count))
system.cpu.dcache.WriteReq.mshrHits::cpu.data            9                       # number of WriteReq MSHR hits (Count)
system.cpu.dcache.WriteReq.mshrHits::total            9                       # number of WriteReq MSHR hits (Count)
system.cpu.dcache.WriteReq.mshrMisses::cpu.data         2042                       # number of WriteReq MSHR misses (Count)
system.cpu.dcache.WriteReq.mshrMisses::total         2042                       # number of WriteReq MSHR misses (Count)
system.cpu.dcache.WriteReq.mshrMissLatency::cpu.data    116874475                       # number of WriteReq MSHR miss ticks (Tick)
system.cpu.dcache.WriteReq.mshrMissLatency::total    116874475                       # number of WriteReq MSHR miss ticks (Tick)
system.cpu.dcache.WriteReq.mshrMissRate::cpu.data     0.001324                       # mshr miss rate for WriteReq accesses (Ratio)
system.cpu.dcache.WriteReq.mshrMissRate::total     0.001324                       # mshr miss rate for WriteReq accesses (Ratio)
system.cpu.dcache.WriteReq.avgMshrMissLatency::cpu.data 57235.296278                       # average WriteReq mshr miss latency ((Tick/Count))
system.cpu.dcache.WriteReq.avgMshrMissLatency::total 57235.296278                       # average WriteReq mshr miss latency ((Tick/Count))
system.cpu.dcache.power_state.pwrStateResidencyTicks::UNDEFINED   3184453500                       # Cumulative time (in ticks) in various power states (Tick)
system.cpu.dcache.tags.tagsInUse          1006.930217                       # Average ticks per tags in use ((Tick/Count))
system.cpu.dcache.tags.totalRefs              3910820                       # Total number of references to valid blocks. (Count)
system.cpu.dcache.tags.sampledRefs              10100                       # Sample count of references to valid blocks. (Count)
system.cpu.dcache.tags.avgRefs             387.209901                       # Average number of references to valid blocks. ((Count/Count))
system.cpu.dcache.tags.warmupTick              148000                       # The tick when the warmup percentage was hit. (Tick)
system.cpu.dcache.tags.occupancies::cpu.data  1006.930217                       # Average occupied blocks per tick, per requestor ((Count/Tick))
system.cpu.dcache.tags.avgOccs::cpu.data     0.983330                       # Average percentage of cache occupancy ((Ratio/Tick))
system.cpu.dcache.tags.avgOccs::total        0.983330                       # Average percentage of cache occupancy ((Ratio/Tick))
system.cpu.dcache.tags.occupanciesTaskId::1024         1024                       # Occupied blocks per task id (Count)
system.cpu.dcache.tags.ageTaskId_1024::1            3                       # Occupied blocks per task id, per block age (Count)
system.cpu.dcache.tags.ageTaskId_1024::3         1021                       # Occupied blocks per task id, per block age (Count)
system.cpu.dcache.tags.ratioOccsTaskId::1024            1                       # Ratio of occupied blocks and all blocks, per task id (Ratio)
system.cpu.dcache.tags.tagAccesses            7869846                       # Number of tag accesses (Count)
system.cpu.dcache.tags.dataAccesses           7869846                       # Number of data accesses (Count)
system.cpu.dcache.tags.power_state.pwrStateResidencyTicks::UNDEFINED   3184453500                       # Cumulative time (in ticks) in various power states (Tick)
system.cpu.decode.idleCycles                   975032                       # Number of cycles decode is idle (Cycle)
system.cpu.decode.blockedCycles               2575971                       # Number of cycles decode is blocked (Cycle)
system.cpu.decode.runCycles                   1789366                       # Number of cycles decode is running (Cycle)
system.cpu.decode.unblockCycles                968355                       # Number of cycles decode is unblocking (Cycle)
system.cpu.decode.squashCycles                  15321                       # Number of cycles decode is squashing (Cycle)
system.cpu.decode.branchResolved               933909                       # Number of times decode resolved a branch (Count)
system.cpu.decode.branchMispred                   528                       # Number of times decode detected a branch misprediction (Count)
system.cpu.decode.decodedInsts               19564543                       # Number of instructions handled by decode (Count)
system.cpu.decode.squashedInsts                 49345                       # Number of squashed instructions handled by decode (Count)
system.cpu.dtb_walker_cache.blockedCycles::no_mshrs            0                       # number of cycles access was blocked (Cycle)
system.cpu.dtb_walker_cache.blockedCycles::no_targets            0                       # number of cycles access was blocked (Cycle)
system.cpu.dtb_walker_cache.blockedCauses::no_mshrs            0                       # number of times access was blocked (Count)
system.cpu.dtb_walker_cache.blockedCauses::no_targets            0                       # number of times access was blocked (Count)
system.cpu.dtb_walker_cache.avgBlocked::no_mshrs          nan                       # average number of cycles each access was blocked ((Cycle/Count))
system.cpu.dtb_walker_cache.avgBlocked::no_targets          nan                       # average number of cycles each access was blocked ((Cycle/Count))
system.cpu.dtb_walker_cache.replacements            0                       # number of replacements (Count)
system.cpu.dtb_walker_cache.power_state.pwrStateResidencyTicks::UNDEFINED   3184453500                       # Cumulative time (in ticks) in various power states (Tick)
system.cpu.dtb_walker_cache.tags.tagsInUse            0                       # Average ticks per tags in use ((Tick/Count))
system.cpu.dtb_walker_cache.tags.totalRefs            0                       # Total number of references to valid blocks. (Count)
system.cpu.dtb_walker_cache.tags.sampledRefs            0                       # Sample count of references to valid blocks. (Count)
system.cpu.dtb_walker_cache.tags.avgRefs          nan                       # Average number of references to valid blocks. ((Count/Count))
system.cpu.dtb_walker_cache.tags.warmupTick            0                       # The tick when the warmup percentage was hit. (Tick)
system.cpu.dtb_walker_cache.tags.tagAccesses            0                       # Number of tag accesses (Count)
system.cpu.dtb_walker_cache.tags.dataAccesses            0                       # Number of data accesses (Count)
system.cpu.dtb_walker_cache.tags.power_state.pwrStateResidencyTicks::UNDEFINED   3184453500                       # Cumulative time (in ticks) in various power states (Tick)
system.cpu.fetch.icacheStallCycles            1723452                       # Number of cycles fetch is stalled on an Icache miss (Cycle)
system.cpu.fetch.insts                       10874512                       # Number of instructions fetch has processed (Count)
system.cpu.fetch.branches                     1958808                       # Number of branches that fetch encountered (Count)
system.cpu.fetch.predictedBranches            1250597                       # Number of branches that fetch has predicted taken (Count)
system.cpu.fetch.cycles                       4583547                       # Number of cycles fetch has run and was not squashing or blocked (Cycle)
system.cpu.fetch.squashCycles                   31660                       # Number of cycles fetch has spent squashing (Cycle)
system.cpu.fetch.miscStallCycles                  154                       # Number of cycles fetch has spent waiting on interrupts, or bad addresses, or out of MSHRs (Cycle)
system.cpu.fetch.pendingTrapStallCycles          1062                       # Number of stall cycles due to pending traps (Cycle)
system.cpu.fetch.cacheLines                   1689609                       # Number of cache lines fetched (Count)
system.cpu.fetch.icacheSquashes                  4017                       # Number of outstanding Icache misses that were squashed (Count)
system.cpu.fetch.nisnDist::samples            6324045                       # Number of instructions fetched each cycle (Total) (Count)
system.cpu.fetch.nisnDist::mean              3.136839                       # Number of instructions fetched each cycle (Total) (Count)
system.cpu.fetch.nisnDist::stdev             3.296751                       # Number of instructions fetched each cycle (Total) (Count)
system.cpu.fetch.nisnDist::underflows               0      0.00%      0.00% # Number of instructions fetched each cycle (Total) (Count)
system.cpu.fetch.nisnDist::0                  2798979     44.26%     44.26% # Number of instructions fetched each cycle (Total) (Count)
system.cpu.fetch.nisnDist::1                   172038      2.72%     46.98% # Number of instructions fetched each cycle (Total) (Count)
system.cpu.fetch.nisnDist::2                   278835      4.41%     51.39% # Number of instructions fetched each cycle (Total) (Count)
system.cpu.fetch.nisnDist::3                   354497      5.61%     56.99% # Number of instructions fetched each cycle (Total) (Count)
system.cpu.fetch.nisnDist::4                   447414      7.07%     64.07% # Number of instructions fetched each cycle (Total) (Count)
system.cpu.fetch.nisnDist::5                   365345      5.78%     69.85% # Number of instructions fetched each cycle (Total) (Count)
system.cpu.fetch.nisnDist::6                   279884      4.43%     74.27% # Number of instructions fetched each cycle (Total) (Count)
system.cpu.fetch.nisnDist::7                   267795      4.23%     78.51% # Number of instructions fetched each cycle (Total) (Count)
system.cpu.fetch.nisnDist::8                  1359258     21.49%    100.00% # Number of instructions fetched each cycle (Total) (Count)
system.cpu.fetch.nisnDist::overflows                0      0.00%    100.00% # Number of instructions fetched each cycle (Total) (Count)
system.cpu.fetch.nisnDist::min_value                0                       # Number of instructions fetched each cycle (Total) (Count)
system.cpu.fetch.nisnDist::max_value                8                       # Number of instructions fetched each cycle (Total) (Count)
system.cpu.fetch.nisnDist::total              6324045                       # Number of instructions fetched each cycle (Total) (Count)
system.cpu.fetch.branchRate                  0.307558                       # Number of branch fetches per cycle (Ratio)
system.cpu.fetch.rate                        1.707437                       # Number of inst fetches per cycle ((Count/Cycle))
system.cpu.icache.demandHits::cpu.inst        1688431                       # number of demand (read+write) hits (Count)
system.cpu.icache.demandHits::total           1688431                       # number of demand (read+write) hits (Count)
system.cpu.icache.overallHits::cpu.inst       1688431                       # number of overall hits (Count)
system.cpu.icache.overallHits::total          1688431                       # number of overall hits (Count)
system.cpu.icache.demandMisses::cpu.inst         1178                       # number of demand (read+write) misses (Count)
system.cpu.icache.demandMisses::total            1178                       # number of demand (read+write) misses (Count)
system.cpu.icache.overallMisses::cpu.inst         1178                       # number of overall misses (Count)
system.cpu.icache.overallMisses::total           1178                       # number of overall misses (Count)
system.cpu.icache.demandMissLatency::cpu.inst     66374000                       # number of demand (read+write) miss ticks (Tick)
system.cpu.icache.demandMissLatency::total     66374000                       # number of demand (read+write) miss ticks (Tick)
system.cpu.icache.overallMissLatency::cpu.inst     66374000                       # number of overall miss ticks (Tick)
system.cpu.icache.overallMissLatency::total     66374000                       # number of overall miss ticks (Tick)
system.cpu.icache.demandAccesses::cpu.inst      1689609                       # number of demand (read+write) accesses (Count)
system.cpu.icache.demandAccesses::total       1689609                       # number of demand (read+write) accesses (Count)
system.cpu.icache.overallAccesses::cpu.inst      1689609                       # number of overall (read+write) accesses (Count)
system.cpu.icache.overallAccesses::total      1689609                       # number of overall (read+write) accesses (Count)
system.cpu.icache.demandMissRate::cpu.inst     0.000697                       # miss rate for demand accesses (Ratio)
system.cpu.icache.demandMissRate::total      0.000697                       # miss rate for demand accesses (Ratio)
system.cpu.icache.overallMissRate::cpu.inst     0.000697                       # miss rate for overall accesses (Ratio)
system.cpu.icache.overallMissRate::total     0.000697                       # miss rate for overall accesses (Ratio)
system.cpu.icache.demandAvgMissLatency::cpu.inst 56344.651952                       # average overall miss latency in ticks ((Tick/Count))
system.cpu.icache.demandAvgMissLatency::total 56344.651952                       # average overall miss latency in ticks ((Tick/Count))
system.cpu.icache.overallAvgMissLatency::cpu.inst 56344.651952                       # average overall miss latency ((Tick/Count))
system.cpu.icache.overallAvgMissLatency::total 56344.651952                       # average overall miss latency ((Tick/Count))
system.cpu.icache.blockedCycles::no_mshrs            0                       # number of cycles access was blocked (Cycle)
system.cpu.icache.blockedCycles::no_targets            0                       # number of cycles access was blocked (Cycle)
system.cpu.icache.blockedCauses::no_mshrs            0                       # number of times access was blocked (Count)
system.cpu.icache.blockedCauses::no_targets            0                       # number of times access was blocked (Count)
system.cpu.icache.avgBlocked::no_mshrs            nan                       # average number of cycles each access was blocked ((Cycle/Count))
system.cpu.icache.avgBlocked::no_targets          nan                       # average number of cycles each access was blocked ((Cycle/Count))
system.cpu.icache.writebacks::writebacks          366                       # number of writebacks (Count)
system.cpu.icache.writebacks::total               366                       # number of writebacks (Count)
system.cpu.icache.demandMshrHits::cpu.inst          332                       # number of demand (read+write) MSHR hits (Count)
system.cpu.icache.demandMshrHits::total           332                       # number of demand (read+write) MSHR hits (Count)
system.cpu.icache.overallMshrHits::cpu.inst          332                       # number of overall MSHR hits (Count)
system.cpu.icache.overallMshrHits::total          332                       # number of overall MSHR hits (Count)
system.cpu.icache.demandMshrMisses::cpu.inst          846                       # number of demand (read+write) MSHR misses (Count)
system.cpu.icache.demandMshrMisses::total          846                       # number of demand (read+write) MSHR misses (Count)
system.cpu.icache.overallMshrMisses::cpu.inst          846                       # number of overall MSHR misses (Count)
system.cpu.icache.overallMshrMisses::total          846                       # number of overall MSHR misses (Count)
system.cpu.icache.demandMshrMissLatency::cpu.inst     50812000                       # number of demand (read+write) MSHR miss ticks (Tick)
system.cpu.icache.demandMshrMissLatency::total     50812000                       # number of demand (read+write) MSHR miss ticks (Tick)
system.cpu.icache.overallMshrMissLatency::cpu.inst     50812000                       # number of overall MSHR miss ticks (Tick)
system.cpu.icache.overallMshrMissLatency::total     50812000                       # number of overall MSHR miss ticks (Tick)
system.cpu.icache.demandMshrMissRate::cpu.inst     0.000501                       # mshr miss ratio for demand accesses (Ratio)
system.cpu.icache.demandMshrMissRate::total     0.000501                       # mshr miss ratio for demand accesses (Ratio)
system.cpu.icache.overallMshrMissRate::cpu.inst     0.000501                       # mshr miss ratio for overall accesses (Ratio)
system.cpu.icache.overallMshrMissRate::total     0.000501                       # mshr miss ratio for overall accesses (Ratio)
system.cpu.icache.demandAvgMshrMissLatency::cpu.inst 60061.465721                       # average overall mshr miss latency ((Tick/Count))
system.cpu.icache.demandAvgMshrMissLatency::total 60061.465721                       # average overall mshr miss latency ((Tick/Count))
system.cpu.icache.overallAvgMshrMissLatency::cpu.inst 60061.465721                       # average overall mshr miss latency ((Tick/Count))
system.cpu.icache.overallAvgMshrMissLatency::total 60061.465721                       # average overall mshr miss latency ((Tick/Count))
system.cpu.icache.replacements                    366                       # number of replacements (Count)
system.cpu.icache.ReadReq.hits::cpu.inst      1688431                       # number of ReadReq hits (Count)
system.cpu.icache.ReadReq.hits::total         1688431                       # number of ReadReq hits (Count)
system.cpu.icache.ReadReq.misses::cpu.inst         1178                       # number of ReadReq misses (Count)
system.cpu.icache.ReadReq.misses::total          1178                       # number of ReadReq misses (Count)
system.cpu.icache.ReadReq.missLatency::cpu.inst     66374000                       # number of ReadReq miss ticks (Tick)
system.cpu.icache.ReadReq.missLatency::total     66374000                       # number of ReadReq miss ticks (Tick)
system.cpu.icache.ReadReq.accesses::cpu.inst      1689609                       # number of ReadReq accesses(hits+misses) (Count)
system.cpu.icache.ReadReq.accesses::total      1689609                       # number of ReadReq accesses(hits+misses) (Count)
system.cpu.icache.ReadReq.missRate::cpu.inst     0.000697                       # miss rate for ReadReq accesses (Ratio)
system.cpu.icache.ReadReq.missRate::total     0.000697                       # miss rate for ReadReq accesses (Ratio)
system.cpu.icache.ReadReq.avgMissLatency::cpu.inst 56344.651952                       # average ReadReq miss latency ((Tick/Count))
system.cpu.icache.ReadReq.avgMissLatency::total 56344.651952                       # average ReadReq miss latency ((Tick/Count))
system.cpu.icache.ReadReq.mshrHits::cpu.inst          332                       # number of ReadReq MSHR hits (Count)
system.cpu.icache.ReadReq.mshrHits::total          332                       # number of ReadReq MSHR hits (Count)
system.cpu.icache.ReadReq.mshrMisses::cpu.inst          846                       # number of ReadReq MSHR misses (Count)
system.cpu.icache.ReadReq.mshrMisses::total          846                       # number of ReadReq MSHR misses (Count)
system.cpu.icache.ReadReq.mshrMissLatency::cpu.inst     50812000                       # number of ReadReq MSHR miss ticks (Tick)
system.cpu.icache.ReadReq.mshrMissLatency::total     50812000                       # number of ReadReq MSHR miss ticks (Tick)
system.cpu.icache.ReadReq.mshrMissRate::cpu.inst     0.000501                       # mshr miss rate for ReadReq accesses (Ratio)
system.cpu.icache.ReadReq.mshrMissRate::total     0.000501                       # mshr miss rate for ReadReq accesses (Ratio)
system.cpu.icache.ReadReq.avgMshrMissLatency::cpu.inst 60061.465721                       # average ReadReq mshr miss latency ((Tick/Count))
system.cpu.icache.ReadReq.avgMshrMissLatency::total 60061.465721                       # average ReadReq mshr miss latency ((Tick/Count))
system.cpu.icache.power_state.pwrStateResidencyTicks::UNDEFINED   3184453500                       # Cumulative time (in ticks) in various power states (Tick)
system.cpu.icache.tags.tagsInUse           471.244866                       # Average ticks per tags in use ((Tick/Count))
system.cpu.icache.tags.totalRefs              1689277                       # Total number of references to valid blocks. (Count)
system.cpu.icache.tags.sampledRefs                846                       # Sample count of references to valid blocks. (Count)
system.cpu.icache.tags.avgRefs            1996.781324                       # Average number of references to valid blocks. ((Count/Count))
system.cpu.icache.tags.warmupTick               77000                       # The tick when the warmup percentage was hit. (Tick)
system.cpu.icache.tags.occupancies::cpu.inst   471.244866                       # Average occupied blocks per tick, per requestor ((Count/Tick))
system.cpu.icache.tags.avgOccs::cpu.inst     0.920400                       # Average percentage of cache occupancy ((Ratio/Tick))
system.cpu.icache.tags.avgOccs::total        0.920400                       # Average percentage of cache occupancy ((Ratio/Tick))
system.cpu.icache.tags.occupanciesTaskId::1024          480                       # Occupied blocks per task id (Count)
system.cpu.icache.tags.ageTaskId_1024::2            1                       # Occupied blocks per task id, per block age (Count)
system.cpu.icache.tags.ageTaskId_1024::3          479                       # Occupied blocks per task id, per block age (Count)
system.cpu.icache.tags.ratioOccsTaskId::1024     0.937500                       # Ratio of occupied blocks and all blocks, per task id (Ratio)
system.cpu.icache.tags.tagAccesses            3380064                       # Number of tag accesses (Count)
system.cpu.icache.tags.dataAccesses           3380064                       # Number of data accesses (Count)
system.cpu.icache.tags.power_state.pwrStateResidencyTicks::UNDEFINED   3184453500                       # Cumulative time (in ticks) in various power states (Tick)
system.cpu.iew.idleCycles                           0                       # Number of cycles IEW is idle (Cycle)
system.cpu.iew.squashCycles                     15321                       # Number of cycles IEW is squashing (Cycle)
system.cpu.iew.blockCycles                     545863                       # Number of cycles IEW is blocking (Cycle)
system.cpu.iew.unblockCycles                    15231                       # Number of cycles IEW is unblocking (Cycle)
system.cpu.iew.dispatchedInsts               19374714                       # Number of instructions dispatched to IQ (Count)
system.cpu.iew.dispSquashedInsts                  421                       # Number of squashed instructions skipped by dispatch (Count)
system.cpu.iew.dispLoadInsts                  3994897                       # Number of dispatched load instructions (Count)
system.cpu.iew.dispStoreInsts                 1606551                       # Number of dispatched store instructions (Count)
system.cpu.iew.dispNonSpecInsts                   103                       # Number of dispatched non-speculative instructions (Count)
system.cpu.iew.iqFullEvents                      2904                       # Number of times the IQ has become full, causing a stall (Count)
system.cpu.iew.lsqFullEvents                     9276                       # Number of times the LSQ has become full, causing a stall (Count)
system.cpu.iew.memOrderViolationEvents            180                       # Number of memory order violations (Count)
system.cpu.iew.predictedTakenIncorrect           7858                       # Number of branches that were predicted taken incorrectly (Count)
system.cpu.iew.predictedNotTakenIncorrect         7638                       # Number of branches that were predicted not taken incorrectly (Count)
system.cpu.iew.branchMispredicts                15496                       # Number of branch mispredicts detected at execute (Count)
system.cpu.iew.instsToCommit                 18914970                       # Cumulative count of insts sent to commit (Count)
system.cpu.iew.writebackCount                18906548                       # Cumulative count of insts written-back (Count)
system.cpu.iew.producerInst                  14415642                       # Number of instructions producing a value (Count)
system.cpu.iew.consumerInst                  22887649                       # Number of instructions consuming a value (Count)
system.cpu.iew.wbRate                        2.968570                       # Insts written-back per cycle ((Count/Cycle))
system.cpu.iew.wbFanout                      0.629844                       # Average fanout of values written-back ((Count/Count))
system.cpu.interrupts.clk_domain.clock           8000                       # Clock period in ticks (Tick)
system.cpu.itb_walker_cache.blockedCycles::no_mshrs            0                       # number of cycles access was blocked (Cycle)
system.cpu.itb_walker_cache.blockedCycles::no_targets            0                       # number of cycles access was blocked (Cycle)
system.cpu.itb_walker_cache.blockedCauses::no_mshrs            0                       # number of times access was blocked (Count)
system.cpu.itb_walker_cache.blockedCauses::no_targets            0                       # number of times access was blocked (Count)
system.cpu.itb_walker_cache.avgBlocked::no_mshrs          nan                       # average number of cycles each access was blocked ((Cycle/Count))
system.cpu.itb_walker_cache.avgBlocked::no_targets          nan                       # average number of cycles each access was blocked ((Cycle/Count))
system.cpu.itb_walker_cache.replacements            0                       # number of replacements (Count)
system.cpu.itb_walker_cache.power_state.pwrStateResidencyTicks::UNDEFINED   3184453500                       # Cumulative time (in ticks) in various power states (Tick)
system.cpu.itb_walker_cache.tags.tagsInUse            0                       # Average ticks per tags in use ((Tick/Count))
system.cpu.itb_walker_cache.tags.totalRefs            0                       # Total number of references to valid blocks. (Count)
system.cpu.itb_walker_cache.tags.sampledRefs            0                       # Sample count of references to valid blocks. (Count)
system.cpu.itb_walker_cache.tags.avgRefs          nan                       # Average number of references to valid blocks. ((Count/Count))
system.cpu.itb_walker_cache.tags.warmupTick            0                       # The tick when the warmup percentage was hit. (Tick)
system.cpu.itb_walker_cache.tags.tagAccesses            0                       # Number of tag accesses (Count)
system.cpu.itb_walker_cache.tags.dataAccesses            0                       # Number of data accesses (Count)
system.cpu.itb_walker_cache.tags.power_state.pwrStateResidencyTicks::UNDEFINED   3184453500                       # Cumulative time (in ticks) in various power states (Tick)
system.cpu.lsq0.forwLoads                     1537600                       # Number of loads that had data forwarded from stores (Count)
system.cpu.lsq0.squashedLoads                  183891                       # Number of loads squashed (Count)
system.cpu.lsq0.ignoredResponses                  204                       # Number of memory responses ignored because the instruction is squashed (Count)
system.cpu.lsq0.memOrderViolation                 180                       # Number of memory ordering violations (Count)
system.cpu.lsq0.squashedStores                  64216                       # Number of stores squashed (Count)
system.cpu.lsq0.rescheduledLoads                    0                       # Number of loads that were rescheduled (Count)
system.cpu.lsq0.blockedByCache                    449                       # Number of times an access to memory failed due to the cache being blocked (Count)
system.cpu.lsq0.loadToUse::samples            3810977                       # Distribution of cycle latency between the first time a load is issued and its completion (Unspecified)
system.cpu.lsq0.loadToUse::mean              3.491494                       # Distribution of cycle latency between the first time a load is issued and its completion (Unspecified)
system.cpu.lsq0.loadToUse::stdev            10.649886                       # Distribution of cycle latency between the first time a load is issued and its completion (Unspecified)
system.cpu.lsq0.loadToUse::0-9                3788727     99.42%     99.42% # Distribution of cycle latency between the first time a load is issued and its completion (Unspecified)
system.cpu.lsq0.loadToUse::10-19                  449      0.01%     99.43% # Distribution of cycle latency between the first time a load is issued and its completion (Unspecified)
system.cpu.lsq0.loadToUse::20-29                  165      0.00%     99.43% # Distribution of cycle latency between the first time a load is issued and its completion (Unspecified)
system.cpu.lsq0.loadToUse::30-39                   45      0.00%     99.43% # Distribution of cycle latency between the first time a load is issued and its completion (Unspecified)
system.cpu.lsq0.loadToUse::40-49                   57      0.00%     99.43% # Distribution of cycle latency between the first time a load is issued and its completion (Unspecified)
system.cpu.lsq0.loadToUse::50-59                   53      0.00%     99.44% # Distribution of cycle latency between the first time a load is issued and its completion (Unspecified)
system.cpu.lsq0.loadToUse::60-69                  136      0.00%     99.44% # Distribution of cycle latency between the first time a load is issued and its completion (Unspecified)
system.cpu.lsq0.loadToUse::70-79                  750      0.02%     99.46% # Distribution of cycle latency between the first time a load is issued and its completion (Unspecified)
system.cpu.lsq0.loadToUse::80-89                 1020      0.03%     99.49% # Distribution of cycle latency between the first time a load is issued and its completion (Unspecified)
system.cpu.lsq0.loadToUse::90-99                  868      0.02%     99.51% # Distribution of cycle latency between the first time a load is issued and its completion (Unspecified)
[...]
system.mem_ctrls.dram.bwWrite::total         33221399                       # Write bandwidth from this memory ((Byte/Second))
system.mem_ctrls.dram.bwTotal::writebacks     33221399                       # Total bandwidth to/from this memory ((Byte/Second))
system.mem_ctrls.dram.bwTotal::cpu.inst      17002603                       # Total bandwidth to/from this memory ((Byte/Second))
system.mem_ctrls.dram.bwTotal::cpu.data     202986164                       # Total bandwidth to/from this memory ((Byte/Second))
system.mem_ctrls.dram.bwTotal::total        253210166                       # Total bandwidth to/from this memory ((Byte/Second))
system.mem_ctrls.dram.readBursts                10777                       # Number of DRAM read bursts (Count)
system.mem_ctrls.dram.writeBursts                1907                       # Number of DRAM write bursts (Count)
system.mem_ctrls.dram.perBankRdBursts::0          712                       # Per bank write bursts (Count)
system.mem_ctrls.dram.perBankRdBursts::1          886                       # Per bank write bursts (Count)
system.mem_ctrls.dram.perBankRdBursts::2          748                       # Per bank write bursts (Count)
system.mem_ctrls.dram.perBankRdBursts::3          966                       # Per bank write bursts (Count)
system.mem_ctrls.dram.perBankRdBursts::4          740                       # Per bank write bursts (Count)
system.mem_ctrls.dram.perBankRdBursts::5          747                       # Per bank write bursts (Count)
system.mem_ctrls.dram.perBankRdBursts::6          432                       # Per bank write bursts (Count)
system.mem_ctrls.dram.perBankRdBursts::7          731                       # Per bank write bursts (Count)
system.mem_ctrls.dram.perBankRdBursts::8          382                       # Per bank write bursts (Count)
system.mem_ctrls.dram.perBankRdBursts::9          445                       # Per bank write bursts (Count)
system.mem_ctrls.dram.perBankRdBursts::10          425                       # Per bank write bursts (Count)
system.mem_ctrls.dram.perBankRdBursts::11          384                       # Per bank write bursts (Count)
system.mem_ctrls.dram.perBankRdBursts::12          877                       # Per bank write bursts (Count)
system.mem_ctrls.dram.perBankRdBursts::13          621                       # Per bank write bursts (Count)
system.mem_ctrls.dram.perBankRdBursts::14          701                       # Per bank write bursts (Count)
system.mem_ctrls.dram.perBankRdBursts::15          980                       # Per bank write bursts (Count)
system.mem_ctrls.dram.perBankWrBursts::0          299                       # Per bank write bursts (Count)
system.mem_ctrls.dram.perBankWrBursts::1          187                       # Per bank write bursts (Count)
system.mem_ctrls.dram.perBankWrBursts::2           87                       # Per bank write bursts (Count)
system.mem_ctrls.dram.perBankWrBursts::3          123                       # Per bank write bursts (Count)
system.mem_ctrls.dram.perBankWrBursts::4          132                       # Per bank write bursts (Count)
system.mem_ctrls.dram.perBankWrBursts::5          152                       # Per bank write bursts (Count)
system.mem_ctrls.dram.perBankWrBursts::6            5                       # Per bank write bursts (Count)
system.mem_ctrls.dram.perBankWrBursts::7           14                       # Per bank write bursts (Count)
system.mem_ctrls.dram.perBankWrBursts::8           52                       # Per bank write bursts (Count)
system.mem_ctrls.dram.perBankWrBursts::9           74                       # Per bank write bursts (Count)
system.mem_ctrls.dram.perBankWrBursts::10           70                       # Per bank write bursts (Count)
system.mem_ctrls.dram.perBankWrBursts::11           66                       # Per bank write bursts (Count)
system.mem_ctrls.dram.perBankWrBursts::12          184                       # Per bank write bursts (Count)
system.mem_ctrls.dram.perBankWrBursts::13          165                       # Per bank write bursts (Count)
system.mem_ctrls.dram.perBankWrBursts::14          106                       # Per bank write bursts (Count)
system.mem_ctrls.dram.perBankWrBursts::15          191                       # Per bank write bursts (Count)
system.mem_ctrls.dram.totQLat               144805000                       # Total ticks spent queuing (Tick)
system.mem_ctrls.dram.totBusLat              53885000                       # Total ticks spent in databus transfers (Tick)
system.mem_ctrls.dram.totMemAccLat          346873750                       # Total ticks spent from burst creation until serviced by the DRAM (Tick)
system.mem_ctrls.dram.avgQLat                13436.49                       # Average queueing delay per DRAM burst ((Tick/Count))
system.mem_ctrls.dram.avgBusLat               5000.00                       # Average bus latency per DRAM burst ((Tick/Count))
system.mem_ctrls.dram.avgMemAccLat           32186.49                       # Average memory access latency per DRAM burst ((Tick/Count))
system.mem_ctrls.dram.readRowHits                7219                       # Number of row buffer hits during reads (Count)
system.mem_ctrls.dram.writeRowHits               1515                       # Number of row buffer hits during writes (Count)
system.mem_ctrls.dram.readRowHitRate            66.99                       # Row buffer hit rate for reads (Ratio)
system.mem_ctrls.dram.writeRowHitRate           79.44                       # Row buffer hit rate for writes (Ratio)
system.mem_ctrls.dram.bytesPerActivate::samples         3950                       # Bytes accessed per row activation (Byte)
system.mem_ctrls.dram.bytesPerActivate::mean   205.512911                       # Bytes accessed per row activation (Byte)
system.mem_ctrls.dram.bytesPerActivate::gmean   134.739407                       # Bytes accessed per row activation (Byte)
system.mem_ctrls.dram.bytesPerActivate::stdev   236.436385                       # Bytes accessed per row activation (Byte)
system.mem_ctrls.dram.bytesPerActivate::0-127         1763     44.63%     44.63% # Bytes accessed per row activation (Byte)
system.mem_ctrls.dram.bytesPerActivate::128-255         1192     30.18%     74.81% # Bytes accessed per row activation (Byte)
system.mem_ctrls.dram.bytesPerActivate::256-383          413     10.46%     85.27% # Bytes accessed per row activation (Byte)
system.mem_ctrls.dram.bytesPerActivate::384-511          171      4.33%     89.59% # Bytes accessed per row activation (Byte)
system.mem_ctrls.dram.bytesPerActivate::512-639          102      2.58%     92.18% # Bytes accessed per row activation (Byte)
system.mem_ctrls.dram.bytesPerActivate::640-767           64      1.62%     93.80% # Bytes accessed per row activation (Byte)
system.mem_ctrls.dram.bytesPerActivate::768-895           42      1.06%     94.86% # Bytes accessed per row activation (Byte)
system.mem_ctrls.dram.bytesPerActivate::896-1023           32      0.81%     95.67% # Bytes accessed per row activation (Byte)
system.mem_ctrls.dram.bytesPerActivate::1024-1151          171      4.33%    100.00% # Bytes accessed per row activation (Byte)
system.mem_ctrls.dram.bytesPerActivate::total         3950                       # Bytes accessed per row activation (Byte)
system.mem_ctrls.dram.bytesRead                689728                       # Total bytes read (Byte)
system.mem_ctrls.dram.bytesWritten             122048                       # Total bytes written (Byte)
system.mem_ctrls.dram.avgRdBW              216.592266                       # Average DRAM read bandwidth in MiBytes/s ((Byte/Second))
system.mem_ctrls.dram.avgWrBW               38.326199                       # Average DRAM write bandwidth in MiBytes/s ((Byte/Second))
system.mem_ctrls.dram.peakBW                 12800.00                       # Theoretical peak bandwidth in MiByte/s ((Byte/Second))
system.mem_ctrls.dram.busUtil                    1.99                       # Data bus utilization in percentage (Ratio)
system.mem_ctrls.dram.busUtilRead                1.69                       # Data bus utilization in percentage for reads (Ratio)
system.mem_ctrls.dram.busUtilWrite               0.30                       # Data bus utilization in percentage for writes (Ratio)
system.mem_ctrls.dram.pageHitRate               68.86                       # Row buffer hit rate, read and write combined (Ratio)
system.mem_ctrls.dram.power_state.pwrStateResidencyTicks::UNDEFINED   3184453500                       # Cumulative time (in ticks) in various power states (Tick)
system.mem_ctrls.dram.rank0.actEnergy        14065800                       # Energy for activate commands per rank (pJ) (Joule)
system.mem_ctrls.dram.rank0.preEnergy         7476150                       # Energy for precharge commands per rank (pJ) (Joule)
system.mem_ctrls.dram.rank0.readEnergy       42568680                       # Energy for read commands per rank (pJ) (Joule)
system.mem_ctrls.dram.rank0.writeEnergy       5214780                       # Energy for write commands per rank (pJ) (Joule)
system.mem_ctrls.dram.rank0.refreshEnergy 250773120.000000                       # Energy for refresh commands per rank (pJ) (Joule)
system.mem_ctrls.dram.rank0.actBackEnergy    470046510                       # Energy for active background per rank (pJ) (Joule)
system.mem_ctrls.dram.rank0.preBackEnergy    827001600                       # Energy for precharge background per rank (pJ) (Joule)
system.mem_ctrls.dram.rank0.actPowerDownEnergy            0                       # Energy for active power-down per rank (pJ) (Joule)
system.mem_ctrls.dram.rank0.prePowerDownEnergy            0                       # Energy for precharge power-down per rank (pJ) (Joule)
system.mem_ctrls.dram.rank0.selfRefreshEnergy            0                       # Energy for self refresh per rank (pJ) (Joule)
system.mem_ctrls.dram.rank0.totalEnergy    1617146640                       # Total energy per rank (pJ) (Joule)
system.mem_ctrls.dram.rank0.averagePower   507.825484                       # Core power per rank (mW) (Watt)
system.mem_ctrls.dram.rank0.totalIdleTime            0                       # Total Idle time Per DRAM Rank (Tick)
system.mem_ctrls.dram.rank0.pwrStateTime::IDLE   2145648000                       # Time in different power states (Tick)
system.mem_ctrls.dram.rank0.pwrStateTime::REF    106080000                       # Time in different power states (Tick)
system.mem_ctrls.dram.rank0.pwrStateTime::SREF            0                       # Time in different power states (Tick)
system.mem_ctrls.dram.rank0.pwrStateTime::PRE_PDN            0                       # Time in different power states (Tick)
system.mem_ctrls.dram.rank0.pwrStateTime::ACT    932725500                       # Time in different power states (Tick)
system.mem_ctrls.dram.rank0.pwrStateTime::ACT_PDN            0                       # Time in different power states (Tick)
system.mem_ctrls.dram.rank1.actEnergy        14137200                       # Energy for activate commands per rank (pJ) (Joule)
system.mem_ctrls.dram.rank1.preEnergy         7514100                       # Energy for precharge commands per rank (pJ) (Joule)
system.mem_ctrls.dram.rank1.readEnergy       34379100                       # Energy for read commands per rank (pJ) (Joule)
system.mem_ctrls.dram.rank1.writeEnergy       4739760                       # Energy for write commands per rank (pJ) (Joule)
system.mem_ctrls.dram.rank1.refreshEnergy 250773120.000000                       # Energy for refresh commands per rank (pJ) (Joule)
system.mem_ctrls.dram.rank1.actBackEnergy    401971410                       # Energy for active background per rank (pJ) (Joule)
system.mem_ctrls.dram.rank1.preBackEnergy    884328000                       # Energy for precharge background per rank (pJ) (Joule)
system.mem_ctrls.dram.rank1.actPowerDownEnergy            0                       # Energy for active power-down per rank (pJ) (Joule)
system.mem_ctrls.dram.rank1.prePowerDownEnergy            0                       # Energy for precharge power-down per rank (pJ) (Joule)
system.mem_ctrls.dram.rank1.selfRefreshEnergy            0                       # Energy for self refresh per rank (pJ) (Joule)
system.mem_ctrls.dram.rank1.totalEnergy    1597842690                       # Total energy per rank (pJ) (Joule)
system.mem_ctrls.dram.rank1.averagePower   501.763549                       # Core power per rank (mW) (Watt)
system.mem_ctrls.dram.rank1.totalIdleTime            0                       # Total Idle time Per DRAM Rank (Tick)
system.mem_ctrls.dram.rank1.pwrStateTime::IDLE   2295548500                       # Time in different power states (Tick)
system.mem_ctrls.dram.rank1.pwrStateTime::REF    106080000                       # Time in different power states (Tick)
system.mem_ctrls.dram.rank1.pwrStateTime::SREF            0                       # Time in different power states (Tick)
system.mem_ctrls.dram.rank1.pwrStateTime::PRE_PDN            0                       # Time in different power states (Tick)
system.mem_ctrls.dram.rank1.pwrStateTime::ACT    782825000                       # Time in different power states (Tick)
system.mem_ctrls.dram.rank1.pwrStateTime::ACT_PDN            0                       # Time in different power states (Tick)
system.mem_ctrls.power_state.pwrStateResidencyTicks::UNDEFINED   3184453500                       # Cumulative time (in ticks) in various power states (Tick)
system.membus.transDist::ReadResp                8904                       # Transaction distribution (Count)
system.membus.transDist::WritebackDirty          1653                       # Transaction distribution (Count)
system.membus.transDist::WritebackClean           366                       # Transaction distribution (Count)
system.membus.transDist::CleanEvict              7423                       # Transaction distribution (Count)
system.membus.transDist::ReadExReq               2042                       # Transaction distribution (Count)
system.membus.transDist::ReadExResp              2042                       # Transaction distribution (Count)
system.membus.transDist::ReadCleanReq             846                       # Transaction distribution (Count)
system.membus.transDist::ReadSharedReq           8058                       # Transaction distribution (Count)
system.membus.pktCount_system.cpu.icache.mem_side_port::system.mem_ctrls.port         2058                       # Packet count per connected requestor and responder (Count)
system.membus.pktCount_system.cpu.icache.mem_side_port::total         2058                       # Packet count per connected requestor and responder (Count)
system.membus.pktCount_system.cpu.dcache.mem_side_port::system.mem_ctrls.port        29276                       # Packet count per connected requestor and responder (Count)
system.membus.pktCount_system.cpu.dcache.mem_side_port::total        29276                       # Packet count per connected requestor and responder (Count)
system.membus.pktCount::total                   31334                       # Packet count per connected requestor and responder (Count)
system.membus.pktSize_system.cpu.icache.mem_side_port::system.mem_ctrls.port        77568                       # Cumulative packet size per connected requestor and responder (Byte)
system.membus.pktSize_system.cpu.icache.mem_side_port::total        77568                       # Cumulative packet size per connected requestor and responder (Byte)
system.membus.pktSize_system.cpu.dcache.mem_side_port::system.mem_ctrls.port       752192                       # Cumulative packet size per connected requestor and responder (Byte)
system.membus.pktSize_system.cpu.dcache.mem_side_port::total       752192                       # Cumulative packet size per connected requestor and responder (Byte)
system.membus.pktSize::total                   829760                       # Cumulative packet size per connected requestor and responder (Byte)
system.membus.snoops                                0                       # Total snoops (Count)
system.membus.snoopTraffic                          0                       # Total snoop traffic (Byte)
system.membus.snoopFanout::samples              10946                       # Request fanout histogram (Count)
system.membus.snoopFanout::mean              0.000731                       # Request fanout histogram (Count)
system.membus.snoopFanout::stdev             0.027026                       # Request fanout histogram (Count)
system.membus.snoopFanout::underflows               0      0.00%      0.00% # Request fanout histogram (Count)
system.membus.snoopFanout::0                    10938     99.93%     99.93% # Request fanout histogram (Count)
system.membus.snoopFanout::1                        8      0.07%    100.00% # Request fanout histogram (Count)
system.membus.snoopFanout::2                        0      0.00%    100.00% # Request fanout histogram (Count)
system.membus.snoopFanout::3                        0      0.00%    100.00% # Request fanout histogram (Count)
system.membus.snoopFanout::4                        0      0.00%    100.00% # Request fanout histogram (Count)
system.membus.snoopFanout::overflows                0      0.00%    100.00% # Request fanout histogram (Count)
system.membus.snoopFanout::min_value                0                       # Request fanout histogram (Count)
system.membus.snoopFanout::max_value                1                       # Request fanout histogram (Count)
system.membus.snoopFanout::total                10946                       # Request fanout histogram (Count)
system.membus.power_state.pwrStateResidencyTicks::UNDEFINED   3184453500                       # Cumulative time (in ticks) in various power states (Tick)
system.membus.reqLayer2.occupancy            30441000                       # Layer occupancy (ticks) (Tick)
system.membus.reqLayer2.utilization               0.0                       # Layer utilization (Ratio)
system.membus.respLayer1.occupancy            4489750                       # Layer occupancy (ticks) (Tick)
system.membus.respLayer1.utilization              0.0                       # Layer utilization (Ratio)
system.membus.respLayer2.occupancy           54143750                       # Layer occupancy (ticks) (Tick)
system.membus.respLayer2.utilization              0.0                       # Layer utilization (Ratio)
system.membus.snoop_filter.totRequests          20388                       # Total number of requests made to the snoop filter. (Count)
system.membus.snoop_filter.hitSingleRequests         9444                       # Number of requests hitting in the snoop filter with a single holder of the requested data. (Count)
system.membus.snoop_filter.hitMultiRequests            6                       # Number of requests hitting in the snoop filter with multiple (>1) holders of the requested data. (Count)
system.membus.snoop_filter.totSnoops                0                       # Total number of snoops made to the snoop filter. (Count)
system.membus.snoop_filter.hitSingleSnoops            0                       # Number of snoops hitting in the snoop filter with a single holder of the requested data. (Count)
system.membus.snoop_filter.hitMultiSnoops            0                       # Number of snoops hitting in the snoop filter with multiple (>1) holders of the requested data. (Count)
system.voltage_domain.voltage                       1                       # Voltage in Volts (Volt)
system.workload.inst.arm                            0                       # number of arm instructions executed (Count)
system.workload.inst.quiesce                        0                       # number of quiesce instructions executed (Count)

---------- End Simulation Statistics   ----------
