
---------- Begin Simulation Statistics ----------
simSeconds                                   0.000971                       # Number of seconds simulated (Second)
simTicks                                    971014500                       # Number of ticks simulated (Tick)
finalTick                                   971014500                       # Number of ticks from beginning of simulation (restored from checkpoints and never reset) (Tick)
simFreq                                  1000000000000                       # The number of ticks per simulated second ((Tick/Second))
hostSeconds                                     15.63                       # Real time elapsed on the host (Second)
hostTickRate                                 62124354                       # The number of ticks simulated per host second (ticks/s) ((Tick/Second))
hostMemory                                    8721304                       # Number of bytes of host memory used (Byte)
simInsts                                      1648301                       # Number of instructions simulated (Count)
simOps                                        2549395                       # Number of ops (including micro ops) simulated (Count)
hostInstRate                                   105452                       # Simulator instruction rate (inst/s) ((Count/Second))
hostOpRate                                     163101                       # Simulator op (including micro ops) rate (op/s) ((Count/Second))
system.clk_domain.clock                          1000                       # Clock period in ticks (Tick)
system.cpu.numCycles                          1942030                       # Number of cpu cycles simulated (Cycle)
system.cpu.numWorkItemsStarted                      0                       # Number of work items this cpu started (Count)
system.cpu.numWorkItemsCompleted                    0                       # Number of work items this cpu completed (Count)
system.cpu.instsAdded                         3340563                       # Number of instructions added to the IQ (excludes non-spec) (Count)
system.cpu.nonSpecInstsAdded                      101                       # Number of non-speculative instructions added to the IQ (Count)
system.cpu.instsIssued                        3011013                       # Number of instructions issued (Count)
system.cpu.squashedInstsIssued                   1737                       # Number of squashed instructions issued (Count)
system.cpu.squashedInstsExamined               791177                       # Number of squashed instructions iterated over during squash; mainly for profiling (Count)
system.cpu.squashedOperandsExamined           2028348                       # Number of squashed operands that are examined and possibly removed from graph (Count)
system.cpu.squashedNonSpecRemoved                  28                       # Number of squashed non-spec instructions that were removed (Count)
system.cpu.numIssuedDist::samples             1897349                       # Number of insts issued each cycle (Count)
system.cpu.numIssuedDist::mean               1.586958                       # Number of insts issued each cycle (Count)
system.cpu.numIssuedDist::stdev              2.136700                       # Number of insts issued each cycle (Count)
system.cpu.numIssuedDist::underflows                0      0.00%      0.00% # Number of insts issued each cycle (Count)
system.cpu.numIssuedDist::0                   1027394     54.15%     54.15% # Number of insts issued each cycle (Count)
system.cpu.numIssuedDist::1                    155081      8.17%     62.32% # Number of insts issued each cycle (Count)
system.cpu.numIssuedDist::2                    148869      7.85%     70.17% # Number of insts issued each cycle (Count)
system.cpu.numIssuedDist::3                    162764      8.58%     78.75% # Number of insts issued each cycle (Count)
system.cpu.numIssuedDist::4                    165920      8.74%     87.49% # Number of insts issued each cycle (Count)
system.cpu.numIssuedDist::5                    106429      5.61%     93.10% # Number of insts issued each cycle (Count)
system.cpu.numIssuedDist::6                     64293      3.39%     96.49% # Number of insts issued each cycle (Count)
system.cpu.numIssuedDist::7                     44473      2.34%     98.83% # Number of insts issued each cycle (Count)
system.cpu.numIssuedDist::8                     22126      1.17%    100.00% # Number of insts issued each cycle (Count)
system.cpu.numIssuedDist::overflows                 0      0.00%    100.00% # Number of insts issued each cycle (Count)
system.cpu.numIssuedDist::min_value                 0                       # Number of insts issued each cycle (Count)
system.cpu.numIssuedDist::max_value                 8                       # Number of insts issued each cycle (Count)
system.cpu.numIssuedDist::total               1897349                       # Number of insts issued each cycle (Count)
system.cpu.statFuBusy::No_OpClass                   0      0.00%      0.00% # attempts to use FU when none available (Count)
system.cpu.statFuBusy::IntAlu                   25555     67.30%     67.30% # attempts to use FU when none available (Count)
system.cpu.statFuBusy::IntMult                      0      0.00%     67.30% # attempts to use FU when none available (Count)
system.cpu.statFuBusy::IntDiv                       0      0.00%     67.30% # attempts to use FU when none available (Count)
system.cpu.statFuBusy::FloatAdd                     0      0.00%     67.30% # attempts to use FU when none available (Count)
system.cpu.statFuBusy::FloatCmp                     0      0.00%     67.30% # attempts to use FU when none available (Count)
system.cpu.statFuBusy::FloatCvt                     0      0.00%     67.30% # attempts to use FU when none available (Count)
system.cpu.statFuBusy::FloatMult                    0      0.00%     67.30% # attempts to use FU when none available (Count)
system.cpu.statFuBusy::FloatMultAcc                 0      0.00%     67.30% # attempts to use FU when none available (Count)
system.cpu.statFuBusy::FloatDiv                     0      0.00%     67.30% # attempts to use FU when none available (Count)
system.cpu.statFuBusy::FloatMisc                    0      0.00%     67.30% # attempts to use FU when none available (Count)
system.cpu.statFuBusy::FloatSqrt                    0      0.00%     67.30% # attempts to use FU when none available (Count)
system.cpu.statFuBusy::SimdAdd                      0      0.00%     67.30% # attempts to use FU when none available (Count)
system.cpu.statFuBusy::SimdAddAcc                   0      0.00%     67.30% # attempts to use FU when none available (Count)
system.cpu.statFuBusy::SimdAlu                      0      0.00%     67.30% # attempts to use FU when none available (Count)
system.cpu.statFuBusy::SimdCmp                      0      0.00%     67.30% # attempts to use FU when none available (Count)
system.cpu.statFuBusy::SimdCvt                      0      0.00%     67.30% # attempts to use FU when none available (Count)
system.cpu.statFuBusy::SimdMisc                     0      0.00%     67.30% # attempts to use FU when none available (Count)
system.cpu.statFuBusy::SimdMult                     0      0.00%     67.30% # attempts to use FU when none available (Count)
system.cpu.statFuBusy::SimdMultAcc                  0      0.00%     67.30% # attempts to use FU when none available (Count)
system.cpu.statFuBusy::SimdShift                    0      0.00%     67.30% # attempts to use FU when none available (Count)
system.cpu.statFuBusy::SimdShiftAcc                 0      0.00%     67.30% # attempts to use FU when none available (Count)
system.cpu.statFuBusy::SimdDiv                      0      0.00%     67.30% # attempts to use FU when none available (Count)
system.cpu.statFuBusy::SimdSqrt                     0      0.00%     67.30% # attempts to use FU when none available (Count)
system.cpu.statFuBusy::SimdFloatAdd                 0      0.00%     67.30% # attempts to use FU when none available (Count)
system.cpu.statFuBusy::SimdFloatAlu                 0      0.00%     67.30% # attempts to use FU when none available (Count)
system.cpu.statFuBusy::SimdFloatCmp                 0      0.00%     67.30% # attempts to use FU when none available (Count)
system.cpu.statFuBusy::SimdFloatCvt                 0      0.00%     67.30% # attempts to use FU when none available (Count)
system.cpu.statFuBusy::SimdFloatDiv                 0      0.00%     67.30% # attempts to use FU when none available (Count)
system.cpu.statFuBusy::SimdFloatMisc                0      0.00%     67.30% # attempts to use FU when none available (Count)
system.cpu.statFuBusy::SimdFloatMult                0      0.00%     67.30% # attempts to use FU when none available (Count)
system.cpu.statFuBusy::SimdFloatMultAcc             0      0.00%     67.30% # attempts to use FU when none available (Count)
system.cpu.statFuBusy::SimdFloatSqrt                0      0.00%     67.30% # attempts to use FU when none available (Count)
system.cpu.statFuBusy::SimdReduceAdd                0      0.00%     67.30% # attempts to use FU when none available (Count)
system.cpu.statFuBusy::SimdReduceAlu                0      0.00%     67.30% # attempts to use FU when none available (Count)
system.cpu.statFuBusy::SimdReduceCmp                0      0.00%     67.30% # attempts to use FU when none available (Count)
system.cpu.statFuBusy::SimdFloatReduceAdd            0      0.00%     67.30% # attempts to use FU when none available (Count)
system.cpu.statFuBusy::SimdFloatReduceCmp            0      0.00%     67.30% # attempts to use FU when none available (Count)
system.cpu.statFuBusy::SimdAes                      0      0.00%     67.30% # attempts to use FU when none available (Count)
system.cpu.statFuBusy::SimdAesMix                   0      0.00%     67.30% # attempts to use FU when none available (Count)
system.cpu.statFuBusy::SimdSha1Hash                 0      0.00%     67.30% # attempts to use FU when none available (Count)
system.cpu.statFuBusy::SimdSha1Hash2                0      0.00%     67.30% # attempts to use FU when none available (Count)
system.cpu.statFuBusy::SimdSha256Hash               0      0.00%     67.30% # attempts to use FU when none available (Count)
system.cpu.statFuBusy::SimdSha256Hash2              0      0.00%     67.30% # attempts to use FU when none available (Count)
system.cpu.statFuBusy::SimdShaSigma2                0      0.00%     67.30% # attempts to use FU when none available (Count)
system.cpu.statFuBusy::SimdShaSigma3                0      0.00%     67.30% # attempts to use FU when none available (Count)
system.cpu.statFuBusy::SimdPredAlu                  0      0.00%     67.30% # attempts to use FU when none available (Count)
system.cpu.statFuBusy::MemRead                   5540     14.59%     81.88% # attempts to use FU when none available (Count)
system.cpu.statFuBusy::MemWrite                  6845     18.03%     99.91% # attempts to use FU when none available (Count)
system.cpu.statFuBusy::FloatMemRead                32      0.08%     99.99% # attempts to use FU when none available (Count)
system.cpu.statFuBusy::FloatMemWrite                2      0.01%    100.00% # attempts to use FU when none available (Count)
system.cpu.statFuBusy::IprAccess                    0      0.00%    100.00% # attempts to use FU when none available (Count)
system.cpu.statFuBusy::InstPrefetch                 0      0.00%    100.00% # attempts to use FU when none available (Count)
system.cpu.statIssuedInstType_0::No_OpClass         7682      0.26%      0.26% # Number of instructions issued per FU type, per thread (Count)
system.cpu.statIssuedInstType_0::IntAlu       2322316     77.13%     77.38% # Number of instructions issued per FU type, per thread (Count)
system.cpu.statIssuedInstType_0::IntMult          201      0.01%     77.39% # Number of instructions issued per FU type, per thread (Count)
system.cpu.statIssuedInstType_0::IntDiv         24766      0.82%     78.21% # Number of instructions issued per FU type, per thread (Count)
system.cpu.statIssuedInstType_0::FloatAdd           66      0.00%     78.21% # Number of instructions issued per FU type, per thread (Count)
system.cpu.statIssuedInstType_0::FloatCmp            0      0.00%     78.21% # Number of instructions issued per FU type, per thread (Count)
system.cpu.statIssuedInstType_0::FloatCvt          128      0.00%     78.22% # Number of instructions issued per FU type, per thread (Count)
system.cpu.statIssuedInstType_0::FloatMult            0      0.00%     78.22% # Number of instructions issued per FU type, per thread (Count)
system.cpu.statIssuedInstType_0::FloatMultAcc            0      0.00%     78.22% # Number of instructions issued per FU type, per thread (Count)
system.cpu.statIssuedInstType_0::FloatDiv            0      0.00%     78.22% # Number of instructions issued per FU type, per thread (Count)
system.cpu.statIssuedInstType_0::FloatMisc            0      0.00%     78.22% # Number of instructions issued per FU type, per thread (Count)
system.cpu.statIssuedInstType_0::FloatSqrt            0      0.00%     78.22% # Number of instructions issued per FU type, per thread (Count)
system.cpu.statIssuedInstType_0::SimdAdd            0      0.00%     78.22% # Number of instructions issued per FU type, per thread (Count)
system.cpu.statIssuedInstType_0::SimdAddAcc            0      0.00%     78.22% # Number of instructions issued per FU type, per thread (Count)
system.cpu.statIssuedInstType_0::SimdAlu            2      0.00%     78.22% # Number of instructions issued per FU type, per thread (Count)
system.cpu.statIssuedInstType_0::SimdCmp            0      0.00%     78.22% # Number of instructions issued per FU type, per thread (Count)
system.cpu.statIssuedInstType_0::SimdCvt           16      0.00%     78.22% # Number of instructions issued per FU type, per thread (Count)
system.cpu.statIssuedInstType_0::SimdMisc           23      0.00%     78.22% # Number of instructions issued per FU type, per thread (Count)
system.cpu.statIssuedInstType_0::SimdMult            0      0.00%     78.22% # Number of instructions issued per FU type, per thread (Count)
system.cpu.statIssuedInstType_0::SimdMultAcc            0      0.00%     78.22% # Number of instructions issued per FU type, per thread (Count)
system.cpu.statIssuedInstType_0::SimdShift            0      0.00%     78.22% # Number of instructions issued per FU type, per thread (Count)
system.cpu.statIssuedInstType_0::SimdShiftAcc            0      0.00%     78.22% # Number of instructions issued per FU type, per thread (Count)
system.cpu.statIssuedInstType_0::SimdDiv            0      0.00%     78.22% # Number of instructions issued per FU type, per thread (Count)
system.cpu.statIssuedInstType_0::SimdSqrt            0      0.00%     78.22% # Number of instructions issued per FU type, per thread (Count)
system.cpu.statIssuedInstType_0::SimdFloatAdd            0      0.00%     78.22% # Number of instructions issued per FU type, per thread (Count)
system.cpu.statIssuedInstType_0::SimdFloatAlu            0      0.00%     78.22% # Number of instructions issued per FU type, per thread (Count)
system.cpu.statIssuedInstType_0::SimdFloatCmp            0      0.00%     78.22% # Number of instructions issued per FU type, per thread (Count)
system.cpu.statIssuedInstType_0::SimdFloatCvt            0      0.00%     78.22% # Number of instructions issued per FU type, per thread (Count)
system.cpu.statIssuedInstType_0::SimdFloatDiv            0      0.00%     78.22% # Number of instructions issued per FU type, per thread (Count)
system.cpu.statIssuedInstType_0::SimdFloatMisc            0      0.00%     78.22% # Number of instructions issued per FU type, per thread (Count)
system.cpu.statIssuedInstType_0::SimdFloatMult            0      0.00%     78.22% # Number of instructions issued per FU type, per thread (Count)
system.cpu.statIssuedInstType_0::SimdFloatMultAcc            0      0.00%     78.22% # Number of instructions issued per FU type, per thread (Count)
system.cpu.statIssuedInstType_0::SimdFloatSqrt            0      0.00%     78.22% # Number of instructions issued per FU type, per thread (Count)
system.cpu.statIssuedInstType_0::SimdReduceAdd            0      0.00%     78.22% # Number of instructions issued per FU type, per thread (Count)
system.cpu.statIssuedInstType_0::SimdReduceAlu            0      0.00%     78.22% # Number of instructions issued per FU type, per thread (Count)
system.cpu.statIssuedInstType_0::SimdReduceCmp            0      0.00%     78.22% # Number of instructions issued per FU type, per thread (Count)
system.cpu.statIssuedInstType_0::SimdFloatReduceAdd            0      0.00%     78.22% # Number of instructions issued per FU type, per thread (Count)
system.cpu.statIssuedInstType_0::SimdFloatReduceCmp            0      0.00%     78.22% # Number of instructions issued per FU type, per thread (Count)
system.cpu.statIssuedInstType_0::SimdAes            0      0.00%     78.22% # Number of instructions issued per FU type, per thread (Count)
system.cpu.statIssuedInstType_0::SimdAesMix            0      0.00%     78.22% # Number of instructions issued per FU type, per thread (Count)
system.cpu.statIssuedInstType_0::SimdSha1Hash            0      0.00%     78.22% # Number of instructions issued per FU type, per thread (Count)
system.cpu.statIssuedInstType_0::SimdSha1Hash2            0      0.00%     78.22% # Number of instructions issued per FU type, per thread (Count)
system.cpu.statIssuedInstType_0::SimdSha256Hash            0      0.00%     78.22% # Number of instructions issued per FU type, per thread (Count)
system.cpu.statIssuedInstType_0::SimdSha256Hash2            0      0.00%     78.22% # Number of instructions issued per FU type, per thread (Count)
system.cpu.statIssuedInstType_0::SimdShaSigma2            0      0.00%     78.22% # Number of instructions issued per FU type, per thread (Count)
system.cpu.statIssuedInstType_0::SimdShaSigma3            0      0.00%     78.22% # Number of instructions issued per FU type, per thread (Count)
system.cpu.statIssuedInstType_0::SimdPredAlu            0      0.00%     78.22% # Number of instructions issued per FU type, per thread (Count)
system.cpu.statIssuedInstType_0::MemRead       488290     16.22%     94.44% # Number of instructions issued per FU type, per thread (Count)
system.cpu.statIssuedInstType_0::MemWrite       167000      5.55%     99.98% # Number of instructions issued per FU type, per thread (Count)
system.cpu.statIssuedInstType_0::FloatMemRead          266      0.01%     99.99% # Number of instructions issued per FU type, per thread (Count)
system.cpu.statIssuedInstType_0::FloatMemWrite          257      0.01%    100.00% # Number of instructions issued per FU type, per thread (Count)
system.cpu.statIssuedInstType_0::IprAccess            0      0.00%    100.00% # Number of instructions issued per FU type, per thread (Count)
system.cpu.statIssuedInstType_0::InstPrefetch            0      0.00%    100.00% # Number of instructions issued per FU type, per thread (Count)
system.cpu.statIssuedInstType_0::total        3011013                       # Number of instructions issued per FU type, per thread (Count)
system.cpu.issueRate                         1.550446                       # Inst issue rate ((Count/Cycle))
system.cpu.fuBusy                               37974                       # FU busy when requested (Count)
system.cpu.fuBusyRate                        0.012612                       # FU busy rate (busy events/executed inst) ((Count/Count))
system.cpu.intInstQueueReads                  7957518                       # Number of integer instruction queue reads (Count)
system.cpu.intInstQueueWrites                 4131137                       # Number of integer instruction queue writes (Count)
system.cpu.intInstQueueWakeupAccesses         2970808                       # Number of integer instruction queue wakeup accesses (Count)
system.cpu.fpInstQueueReads                      1568                       # Number of floating instruction queue reads (Count)
system.cpu.fpInstQueueWrites                      780                       # Number of floating instruction queue writes (Count)
system.cpu.fpInstQueueWakeupAccesses              766                       # Number of floating instruction queue wakeup accesses (Count)
system.cpu.vecInstQueueReads                        0                       # Number of vector instruction queue reads (Count)
system.cpu.vecInstQueueWrites                       0                       # Number of vector instruction queue writes (Count)
system.cpu.vecInstQueueWakeupAccesses               0                       # Number of vector instruction queue wakeup accesses (Count)
system.cpu.intAluAccesses                     3040504                       # Number of integer alu accesses (Count)
system.cpu.fpAluAccesses                          801                       # Number of floating point alu accesses (Count)
system.cpu.vecAluAccesses                           0                       # Number of vector alu accesses (Count)
system.cpu.numInsts                           2988823                       # Number of executed instructions (Count)
system.cpu.numLoadInsts                        483699                       # Number of load instructions executed (Count)
system.cpu.numSquashedInsts                     22190                       # Number of squashed instructions skipped in execute (Count)
system.cpu.numSwp                                   0                       # Number of swp insts executed (Count)
system.cpu.numNop                                   0                       # Number of nop insts executed (Count)
system.cpu.numRefs                             648479                       # Number of memory reference insts executed (Count)
system.cpu.numBranches                         243935                       # Number of branches executed (Count)
system.cpu.numStoreInsts                       164780                       # Number of stores executed (Count)
system.cpu.numRate                           1.539020                       # Inst execution rate ((Count/Cycle))
system.cpu.timesIdled                             526                       # Number of times that the entire CPU went into an idle state and unscheduled itself (Count)
system.cpu.idleCycles                           44681                       # Total number of cycles that the CPU has spent unscheduled due to idling (Cycle)
system.cpu.committedInsts                     1648301                       # Number of Instructions Simulated (Count)
system.cpu.committedOps                       2549395                       # Number of Ops (including micro ops) Simulated (Count)
system.cpu.cpi                               1.178201                       # CPI: Cycles Per Instruction ((Cycle/Count))
system.cpu.totalCpi                          1.178201                       # CPI: Total CPI of All Threads ((Cycle/Count))
system.cpu.ipc                               0.848752                       # IPC: Instructions Per Cycle ((Count/Cycle))
system.cpu.totalIpc                          0.848752                       # IPC: Total IPC of All Threads ((Count/Cycle))
system.cpu.intRegfileReads                    4216603                       # Number of integer regfile reads (Count)
system.cpu.intRegfileWrites                   2400163                       # Number of integer regfile writes (Count)
system.cpu.fpRegfileReads                         486                       # Number of floating regfile reads (Count)
system.cpu.fpRegfileWrites                        365                       # Number of floating regfile writes (Count)
system.cpu.ccRegfileReads                     1484018                       # number of cc regfile reads (Count)
system.cpu.ccRegfileWrites                    1418575                       # number of cc regfile writes (Count)
system.cpu.miscRegfileReads                   1181317                       # number of misc regfile reads (Count)
system.cpu.miscRegfileWrites                       72                       # number of misc regfile writes (Count)
system.cpu.MemDepUnit__0.insertedLoads         529904                       # Number of loads inserted to the mem dependence unit. (Count)
system.cpu.MemDepUnit__0.insertedStores        176997                       # Number of stores inserted to the mem dependence unit. (Count)
system.cpu.MemDepUnit__0.conflictingLoads        24722                       # Number of conflicting loads. (Count)
system.cpu.MemDepUnit__0.conflictingStores         8017                       # Number of conflicting stores. (Count)
system.cpu.MemDepUnit__1.insertedLoads              0                       # Number of loads inserted to the mem dependence unit. (Count)
system.cpu.MemDepUnit__1.insertedStores             0                       # Number of stores inserted to the mem dependence unit. (Count)
system.cpu.MemDepUnit__1.conflictingLoads            0                       # Number of conflicting loads. (Count)
system.cpu.MemDepUnit__1.conflictingStores            0                       # Number of conflicting stores. (Count)
system.cpu.MemDepUnit__2.insertedLoads              0                       # Number of loads inserted to the mem dependence unit. (Count)
system.cpu.MemDepUnit__2.insertedStores             0                       # Number of stores inserted to the mem dependence unit. (Count)
system.cpu.MemDepUnit__2.conflictingLoads            0                       # Number of conflicting loads. (Count)
system.cpu.MemDepUnit__2.conflictingStores            0                       # Number of conflicting stores. (Count)
system.cpu.MemDepUnit__3.insertedLoads              0                       # Number of loads inserted to the mem dependence unit. (Count)
system.cpu.MemDepUnit__3.insertedStores             0                       # Number of stores inserted to the mem dependence unit. (Count)
system.cpu.MemDepUnit__3.conflictingLoads            0                       # Number of conflicting loads. (Count)
system.cpu.MemDepUnit__3.conflictingStores            0                       # Number of conflicting stores. (Count)
system.cpu.branchPred.lookups                  355270                       # Number of BP lookups (Count)
system.cpu.branchPred.condPredicted            316129                       # Number of conditional branches predicted (Count)
system.cpu.branchPred.condIncorrect             12292                       # Number of conditional branches incorrect (Count)
system.cpu.branchPred.BTBLookups               186041                       # Number of BTB lookups (Count)
system.cpu.branchPred.BTBHits                  180519                       # Number of BTB hits (Count)
system.cpu.branchPred.BTBHitRatio            0.970318                       # BTB Hit Ratio (Ratio)
system.cpu.branchPred.RASUsed                   14238                       # Number of times the RAS was used to get a target. (Count)
system.cpu.branchPred.RASIncorrect                  1                       # Number of incorrect RAS predictions. (Count)
system.cpu.branchPred.indirectLookups            3859                       # Number of indirect predictor lookups. (Count)
system.cpu.branchPred.indirectHits               2677                       # Number of indirect target hits. (Count)
system.cpu.branchPred.indirectMisses             1182                       # Number of indirect misses. (Count)
system.cpu.branchPred.indirectMispredicted          258                       # Number of mispredicted indirect branches. (Count)
system.cpu.commit.commitSquashedInsts          786768                       # The number of squashed insts skipped by commit (Count)
system.cpu.commit.commitNonSpecStalls              73                       # The number of times commit has been forced to stall to communicate backwards (Count)
system.cpu.commit.branchMispredicts             11925                       # The number of times a branch was mispredicted (Count)
system.cpu.commit.numCommittedDist::samples      1789309                       # Number of insts commited each cycle (Count)
system.cpu.commit.numCommittedDist::mean     1.424793                       # Number of insts commited each cycle (Count)
system.cpu.commit.numCommittedDist::stdev     2.358707                       # Number of insts commited each cycle (Count)
system.cpu.commit.numCommittedDist::underflows            0      0.00%      0.00% # Number of insts commited each cycle (Count)
system.cpu.commit.numCommittedDist::0         1068063     59.69%     59.69% # Number of insts commited each cycle (Count)
system.cpu.commit.numCommittedDist::1          214200     11.97%     71.66% # Number of insts commited each cycle (Count)
system.cpu.commit.numCommittedDist::2           75769      4.23%     75.90% # Number of insts commited each cycle (Count)
system.cpu.commit.numCommittedDist::3          188735     10.55%     86.44% # Number of insts commited each cycle (Count)
system.cpu.commit.numCommittedDist::4           24751      1.38%     87.83% # Number of insts commited each cycle (Count)
system.cpu.commit.numCommittedDist::5           60185      3.36%     91.19% # Number of insts commited each cycle (Count)
system.cpu.commit.numCommittedDist::6           16868      0.94%     92.13% # Number of insts commited each cycle (Count)
system.cpu.commit.numCommittedDist::7            9589      0.54%     92.67% # Number of insts commited each cycle (Count)
system.cpu.commit.numCommittedDist::8          131149      7.33%    100.00% # Number of insts commited each cycle (Count)
system.cpu.commit.numCommittedDist::overflows            0      0.00%    100.00% # Number of insts commited each cycle (Count)
system.cpu.commit.numCommittedDist::min_value            0                       # Number of insts commited each cycle (Count)
system.cpu.commit.numCommittedDist::max_value            8                       # Number of insts commited each cycle (Count)
system.cpu.commit.numCommittedDist::total      1789309                       # Number of insts commited each cycle (Count)
system.cpu.commit.instsCommitted              1648301                       # Number of instructions committed (Count)
system.cpu.commit.opsCommitted                2549395                       # Number of ops (including micro ops) committed (Count)
system.cpu.commit.memRefs                      548198                       # Number of memory references committed (Count)
system.cpu.commit.loads                        409480                       # Number of loads committed (Count)
system.cpu.commit.amos                              0                       # Number of atomic instructions committed (Count)
system.cpu.commit.membars                           0                       # Number of memory barriers committed (Count)
system.cpu.commit.branches                     223636                       # Number of branches committed (Count)
system.cpu.commit.vectorInstructions                0                       # Number of committed Vector instructions. (Count)
system.cpu.commit.floating                        754                       # Number of committed floating point instructions. (Count)
system.cpu.commit.integer                     2533184                       # Number of committed integer instructions. (Count)
system.cpu.commit.functionCalls                  6663                       # Number of function calls committed. (Count)
system.cpu.commit.committedInstType_0::No_OpClass         6307      0.25%      0.25% # Class of committed instruction (Count)
system.cpu.commit.committedInstType_0::IntAlu      1971580     77.34%     77.58% # Class of committed instruction (Count)
system.cpu.commit.committedInstType_0::IntMult          163      0.01%     77.59% # Class of committed instruction (Count)
system.cpu.commit.committedInstType_0::IntDiv        22920      0.90%     78.49% # Class of committed instruction (Count)
system.cpu.commit.committedInstType_0::FloatAdd           66      0.00%     78.49% # Class of committed instruction (Count)
system.cpu.commit.committedInstType_0::FloatCmp            0      0.00%     78.49% # Class of committed instruction (Count)
system.cpu.commit.committedInstType_0::FloatCvt          128      0.01%     78.50% # Class of committed instruction (Count)
system.cpu.commit.committedInstType_0::FloatMult            0      0.00%     78.50% # Class of committed instruction (Count)
system.cpu.commit.committedInstType_0::FloatMultAcc            0      0.00%     78.50% # Class of committed instruction (Count)
system.cpu.commit.committedInstType_0::FloatDiv            0      0.00%     78.50% # Class of committed instruction (Count)
system.cpu.commit.committedInstType_0::FloatMisc            0      0.00%     78.50% # Class of committed instruction (Count)
system.cpu.commit.committedInstType_0::FloatSqrt            0      0.00%     78.50% # Class of committed instruction (Count)
system.cpu.commit.committedInstType_0::SimdAdd            0      0.00%     78.50% # Class of committed instruction (Count)
system.cpu.commit.committedInstType_0::SimdAddAcc            0      0.00%     78.50% # Class of committed instruction (Count)
system.cpu.commit.committedInstType_0::SimdAlu            2      0.00%     78.50% # Class of committed instruction (Count)
system.cpu.commit.committedInstType_0::SimdCmp            0      0.00%     78.50% # Class of committed instruction (Count)
system.cpu.commit.committedInstType_0::SimdCvt           12      0.00%     78.50% # Class of committed instruction (Count)
system.cpu.commit.committedInstType_0::SimdMisc           19      0.00%     78.50% # Class of committed instruction (Count)
system.cpu.commit.committedInstType_0::SimdMult            0      0.00%     78.50% # Class of committed instruction (Count)
system.cpu.commit.committedInstType_0::SimdMultAcc            0      0.00%     78.50% # Class of committed instruction (Count)
system.cpu.commit.committedInstType_0::SimdShift            0      0.00%     78.50% # Class of committed instruction (Count)
system.cpu.commit.committedInstType_0::SimdShiftAcc            0      0.00%     78.50% # Class of committed instruction (Count)
system.cpu.commit.committedInstType_0::SimdDiv            0      0.00%     78.50% # Class of committed instruction (Count)
system.cpu.commit.committedInstType_0::SimdSqrt            0      0.00%     78.50% # Class of committed instruction (Count)
system.cpu.commit.committedInstType_0::SimdFloatAdd            0      0.00%     78.50% # Class of committed instruction (Count)
system.cpu.commit.committedInstType_0::SimdFloatAlu            0      0.00%     78.50% # Class of committed instruction (Count)
system.cpu.commit.committedInstType_0::SimdFloatCmp            0      0.00%     78.50% # Class of committed instruction (Count)
system.cpu.commit.committedInstType_0::SimdFloatCvt            0      0.00%     78.50% # Class of committed instruction (Count)
system.cpu.commit.committedInstType_0::SimdFloatDiv            0      0.00%     78.50% # Class of committed instruction (Count)
system.cpu.commit.committedInstType_0::SimdFloatMisc            0      0.00%     78.50% # Class of committed instruction (Count)
system.cpu.commit.committedInstType_0::SimdFloatMult            0      0.00%     78.50% # Class of committed instruction (Count)
system.cpu.commit.committedInstType_0::SimdFloatMultAcc            0      0.00%     78.50% # Class of committed instruction (Count)
system.cpu.commit.committedInstType_0::SimdFloatSqrt            0      0.00%     78.50% # Class of committed instruction (Count)
system.cpu.commit.committedInstType_0::SimdReduceAdd            0      0.00%     78.50% # Class of committed instruction (Count)
system.cpu.commit.committedInstType_0::SimdReduceAlu            0      0.00%     78.50% # Class of committed instruction (Count)
system.cpu.commit.committedInstType_0::SimdReduceCmp            0      0.00%     78.50% # Class of committed instruction (Count)
system.cpu.commit.committedInstType_0::SimdFloatReduceAdd            0      0.00%     78.50% # Class of committed instruction (Count)
system.cpu.commit.committedInstType_0::SimdFloatReduceCmp            0      0.00%     78.50% # Class of committed instruction (Count)
system.cpu.commit.committedInstType_0::SimdAes            0      0.00%     78.50% # Class of committed instruction (Count)
system.cpu.commit.committedInstType_0::SimdAesMix            0      0.00%     78.50% # Class of committed instruction (Count)
system.cpu.commit.committedInstType_0::SimdSha1Hash            0      0.00%     78.50% # Class of committed instruction (Count)
system.cpu.commit.committedInstType_0::SimdSha1Hash2            0      0.00%     78.50% # Class of committed instruction (Count)
system.cpu.commit.committedInstType_0::SimdSha256Hash            0      0.00%     78.50% # Class of committed instruction (Count)
system.cpu.commit.committedInstType_0::SimdSha256Hash2            0      0.00%     78.50% # Class of committed instruction (Count)
system.cpu.commit.committedInstType_0::SimdShaSigma2            0      0.00%     78.50% # Class of committed instruction (Count)
system.cpu.commit.committedInstType_0::SimdShaSigma3            0      0.00%     78.50% # Class of committed instruction (Count)
system.cpu.commit.committedInstType_0::SimdPredAlu            0      0.00%     78.50% # Class of committed instruction (Count)
system.cpu.commit.committedInstType_0::MemRead       409217     16.05%     94.55% # Class of committed instruction (Count)
system.cpu.commit.committedInstType_0::MemWrite       138461      5.43%     99.98% # Class of committed instruction (Count)
system.cpu.commit.committedInstType_0::FloatMemRead          263      0.01%     99.99% # Class of committed instruction (Count)
system.cpu.commit.committedInstType_0::FloatMemWrite          257      0.01%    100.00% # Class of committed instruction (Count)
system.cpu.commit.committedInstType_0::IprAccess            0      0.00%    100.00% # Class of committed instruction (Count)
system.cpu.commit.committedInstType_0::InstPrefetch            0      0.00%    100.00% # Class of committed instruction (Count)
system.cpu.commit.committedInstType_0::total      2549395                       # Class of committed instruction (Count)
system.cpu.commit.commitEligibleSamples        131149                       # number cycles where commit BW limit reached (Cycle)
system.cpu.dcache.demandHits::cpu.data         490995                       # number of demand (read+write) hits (Count)
system.cpu.dcache.demandHits::total            490995                       # number of demand (read+write) hits (Count)
system.cpu.dcache.overallHits::cpu.data        490995                       # number of overall hits (Count)
system.cpu.dcache.overallHits::total           490995                       # number of overall hits (Count)
system.cpu.dcache.demandMisses::cpu.data        30786                       # number of demand (read+write) misses (Count)
system.cpu.dcache.demandMisses::total           30786                       # number of demand (read+write) misses (Count)
system.cpu.dcache.overallMisses::cpu.data        30786                       # number of overall misses (Count)
system.cpu.dcache.overallMisses::total          30786                       # number of overall misses (Count)
system.cpu.dcache.demandMissLatency::cpu.data   1892343475                       # number of demand (read+write) miss ticks (Tick)
system.cpu.dcache.demandMissLatency::total   1892343475                       # number of demand (read+write) miss ticks (Tick)
system.cpu.dcache.overallMissLatency::cpu.data   1892343475                       # number of overall miss ticks (Tick)
system.cpu.dcache.overallMissLatency::total   1892343475                       # number of overall miss ticks (Tick)
system.cpu.dcache.demandAccesses::cpu.data       521781                       # number of demand (read+write) accesses (Count)
system.cpu.dcache.demandAccesses::total        521781                       # number of demand (read+write) accesses (Count)
system.cpu.dcache.overallAccesses::cpu.data       521781                       # number of overall (read+write) accesses (Count)
system.cpu.dcache.overallAccesses::total       521781                       # number of overall (read+write) accesses (Count)
system.cpu.dcache.demandMissRate::cpu.data     0.059002                       # miss rate for demand accesses (Ratio)
system.cpu.dcache.demandMissRate::total      0.059002                       # miss rate for demand accesses (Ratio)
system.cpu.dcache.overallMissRate::cpu.data     0.059002                       # miss rate for overall accesses (Ratio)
system.cpu.dcache.overallMissRate::total     0.059002                       # miss rate for overall accesses (Ratio)
system.cpu.dcache.demandAvgMissLatency::cpu.data 61467.663061                       # average overall miss latency in ticks ((Tick/Count))
system.cpu.dcache.demandAvgMissLatency::total 61467.663061                       # average overall miss latency in ticks ((Tick/Count))
system.cpu.dcache.overallAvgMissLatency::cpu.data 61467.663061                       # average overall miss latency ((Tick/Count))
system.cpu.dcache.overallAvgMissLatency::total 61467.663061                       # average overall miss latency ((Tick/Count))
system.cpu.dcache.blockedCycles::no_mshrs        20333                       # number of cycles access was blocked (Cycle)
system.cpu.dcache.blockedCycles::no_targets          682                       # number of cycles access was blocked (Cycle)
system.cpu.dcache.blockedCauses::no_mshrs          464                       # number of times access was blocked (Count)
system.cpu.dcache.blockedCauses::no_targets            4                       # number of times access was blocked (Count)
system.cpu.dcache.avgBlocked::no_mshrs      43.821121                       # average number of cycles each access was blocked ((Cycle/Count))
system.cpu.dcache.avgBlocked::no_targets   170.500000                       # average number of cycles each access was blocked ((Cycle/Count))
system.cpu.dcache.writebacks::writebacks         3131                       # number of writebacks (Count)
system.cpu.dcache.writebacks::total              3131                       # number of writebacks (Count)
system.cpu.dcache.demandMshrHits::cpu.data        18961                       # number of demand (read+write) MSHR hits (Count)
system.cpu.dcache.demandMshrHits::total         18961                       # number of demand (read+write) MSHR hits (Count)
system.cpu.dcache.overallMshrHits::cpu.data        18961                       # number of overall MSHR hits (Count)
system.cpu.dcache.overallMshrHits::total        18961                       # number of overall MSHR hits (Count)
system.cpu.dcache.demandMshrMisses::cpu.data        11825                       # number of demand (read+write) MSHR misses (Count)
system.cpu.dcache.demandMshrMisses::total        11825                       # number of demand (read+write) MSHR misses (Count)
system.cpu.dcache.overallMshrMisses::cpu.data        11825                       # number of overall MSHR misses (Count)
system.cpu.dcache.overallMshrMisses::total        11825                       # number of overall MSHR misses (Count)
system.cpu.dcache.demandMshrMissLatency::cpu.data    745813475                       # number of demand (read+write) MSHR miss ticks (Tick)
system.cpu.dcache.demandMshrMissLatency::total    745813475                       # number of demand (read+write) MSHR miss ticks (Tick)
system.cpu.dcache.overallMshrMissLatency::cpu.data    745813475                       # number of overall MSHR miss ticks (Tick)
system.cpu.dcache.overallMshrMissLatency::total    745813475                       # number of overall MSHR miss ticks (Tick)
system.cpu.dcache.demandMshrMissRate::cpu.data     0.022663                       # mshr miss ratio for demand accesses (Ratio)
system.cpu.dcache.demandMshrMissRate::total     0.022663                       # mshr miss ratio for demand accesses (Ratio)
system.cpu.dcache.overallMshrMissRate::cpu.data     0.022663                       # mshr miss ratio for overall accesses (Ratio)
system.cpu.dcache.overallMshrMissRate::total     0.022663                       # mshr miss ratio for overall accesses (Ratio)
system.cpu.dcache.demandAvgMshrMissLatency::cpu.data 63070.906977                       # average overall mshr miss latency ((Tick/Count))
system.cpu.dcache.demandAvgMshrMissLatency::total 63070.906977                       # average overall mshr miss latency ((Tick/Count))
system.cpu.dcache.overallAvgMshrMissLatency::cpu.data 63070.906977                       # average overall mshr miss latency ((Tick/Count))
system.cpu.dcache.overallAvgMshrMissLatency::total 63070.906977                       # average overall mshr miss latency ((Tick/Count))
system.cpu.dcache.replacements                  10798                       # number of replacements (Count)
system.cpu.dcache.ReadReq.hits::cpu.data       356094                       # number of ReadReq hits (Count)
system.cpu.dcache.ReadReq.hits::total          356094                       # number of ReadReq hits (Count)
system.cpu.dcache.ReadReq.misses::cpu.data        26964                       # number of ReadReq misses (Count)
system.cpu.dcache.ReadReq.misses::total         26964                       # number of ReadReq misses (Count)
system.cpu.dcache.ReadReq.missLatency::cpu.data   1663411000                       # number of ReadReq miss ticks (Tick)
system.cpu.dcache.ReadReq.missLatency::total   1663411000                       # number of ReadReq miss ticks (Tick)
system.cpu.dcache.ReadReq.accesses::cpu.data       383058                       # number of ReadReq accesses(hits+misses) (Count)
system.cpu.dcache.ReadReq.accesses::total       383058                       # number of ReadReq accesses(hits+misses) (Count)
system.cpu.dcache.ReadReq.missRate::cpu.data     0.070391                       # miss rate for ReadReq accesses (Ratio)
system.cpu.dcache.ReadReq.missRate::total     0.070391                       # miss rate for ReadReq accesses (Ratio)
system.cpu.dcache.ReadReq.avgMissLatency::cpu.data 61690.068239                       # average ReadReq miss latency ((Tick/Count))
system.cpu.dcache.ReadReq.avgMissLatency::total 61690.068239                       # average ReadReq miss latency ((Tick/Count))
system.cpu.dcache.ReadReq.mshrHits::cpu.data        18953                       # number of ReadReq MSHR hits (Count)
system.cpu.dcache.ReadReq.mshrHits::total        18953                       # number of ReadReq MSHR hits (Count)
system.cpu.dcache.ReadReq.mshrMisses::cpu.data         8011                       # number of ReadReq MSHR misses (Count)
system.cpu.dcache.ReadReq.mshrMisses::total         8011                       # number of ReadReq MSHR misses (Count)
system.cpu.dcache.ReadReq.mshrMissLatency::cpu.data    521025000                       # number of ReadReq MSHR miss ticks (Tick)
system.cpu.dcache.ReadReq.mshrMissLatency::total    521025000                       # number of ReadReq MSHR miss ticks (Tick)
system.cpu.dcache.ReadReq.mshrMissRate::cpu.data     0.020913                       # mshr miss rate for ReadReq accesses (Ratio)
system.cpu.dcache.ReadReq.mshrMissRate::total     0.020913                       # mshr miss rate for ReadReq accesses (Ratio)
system.cpu.dcache.ReadReq.avgMshrMissLatency::cpu.data 65038.696792                       # average ReadReq mshr miss latency ((Tick/Count))
system.cpu.dcache.ReadReq.avgMshrMissLatency::total 65038.696792                       # average ReadReq mshr miss latency ((Tick/Count))
system.cpu.dcache.WriteReq.hits::cpu.data       134901                       # number of WriteReq hits (Count)
system.cpu.dcache.WriteReq.hits::total         134901                       # number of WriteReq hits (Count)
system.cpu.dcache.WriteReq.misses::cpu.data         3822                       # number of WriteReq misses (Count)
system.cpu.dcache.WriteReq.misses::total         3822                       # number of WriteReq misses (Count)
system.cpu.dcache.WriteReq.missLatency::cpu.data    228932475                       # number of WriteReq miss ticks (Tick)
system.cpu.dcache.WriteReq.missLatency::total    228932475                       # number of WriteReq miss ticks (Tick)
system.cpu.dcache.WriteReq.accesses::cpu.data       138723                       # number of WriteReq accesses(hits+misses) (Count)
system.cpu.dcache.WriteReq.accesses::total       138723                       # number of WriteReq accesses(hits+misses) (Count)
system.cpu.dcache.WriteReq.missRate::cpu.data     0.027551                       # miss rate for WriteReq accesses (Ratio)
system.cpu.dcache.WriteReq.missRate::total     0.027551                       # miss rate for WriteReq accesses (Ratio)
system.cpu.dcache.WriteReq.avgMissLatency::cpu.data 59898.606750                       # average WriteReq miss latency ((Tick/Count))
system.cpu.dcache.WriteReq.avgMissLatency::total 59898.606750                       # average WriteReq miss latency ((Tick/Count))
system.cpu.dcache.WriteReq.mshrHits::cpu.data            8                       # number of WriteReq MSHR hits (Count)
system.cpu.dcache.WriteReq.mshrHits::total            8                       # number of WriteReq MSHR hits (Count)
system.cpu.dcache.WriteReq.mshrMisses::cpu.data         3814                       # number of WriteReq MSHR misses (Count)
system.cpu.dcache.WriteReq.mshrMisses::total         3814                       # number of WriteReq MSHR misses (Count)
system.cpu.dcache.WriteReq.mshrMissLatency::cpu.data    224788475                       # number of WriteReq MSHR miss ticks (Tick)
system.cpu.dcache.WriteReq.mshrMissLatency::total    224788475                       # number of WriteReq MSHR miss ticks (Tick)
system.cpu.dcache.WriteReq.mshrMissRate::cpu.data     0.027494                       # mshr miss rate for WriteReq accesses (Ratio)
system.cpu.dcache.WriteReq.mshrMissRate::total     0.027494                       # mshr miss rate for WriteReq accesses (Ratio)
system.cpu.dcache.WriteReq.avgMshrMissLatency::cpu.data 58937.722863                       # average WriteReq mshr miss latency ((Tick/Count))
system.cpu.dcache.WriteReq.avgMshrMissLatency::total 58937.722863                       # average WriteReq mshr miss latency ((Tick/Count))
system.cpu.dcache.power_state.pwrStateResidencyTicks::UNDEFINED    971014500                       # Cumulative time (in ticks) in various power states (Tick)
system.cpu.dcache.tags.tagsInUse           968.019445                       # Average ticks per tags in use ((Tick/Count))
system.cpu.dcache.tags.totalRefs               426527                       # Total number of references to valid blocks. (Count)
system.cpu.dcache.tags.sampledRefs              10798                       # Sample count of references to valid blocks. (Count)
system.cpu.dcache.tags.avgRefs              39.500556                       # Average number of references to valid blocks. ((Count/Count))
system.cpu.dcache.tags.warmupTick              148000                       # The tick when the warmup percentage was hit. (Tick)
system.cpu.dcache.tags.occupancies::cpu.data   968.019445                       # Average occupied blocks per tick, per requestor ((Count/Tick))
system.cpu.dcache.tags.avgOccs::cpu.data     0.945331                       # Average percentage of cache occupancy ((Ratio/Tick))
system.cpu.dcache.tags.avgOccs::total        0.945331                       # Average percentage of cache occupancy ((Ratio/Tick))
system.cpu.dcache.tags.occupanciesTaskId::1024         1024                       # Occupied blocks per task id (Count)
system.cpu.dcache.tags.ageTaskId_1024::0          135                       # Occupied blocks per task id, per block age (Count)
system.cpu.dcache.tags.ageTaskId_1024::1          888                       # Occupied blocks per task id, per block age (Count)
system.cpu.dcache.tags.ageTaskId_1024::2            1                       # Occupied blocks per task id, per block age (Count)
system.cpu.dcache.tags.ratioOccsTaskId::1024            1                       # Ratio of occupied blocks and all blocks, per task id (Ratio)
system.cpu.dcache.tags.tagAccesses            1055384                       # Number of tag accesses (Count)
system.cpu.dcache.tags.dataAccesses           1055384                       # Number of data accesses (Count)
system.cpu.dcache.tags.power_state.pwrStateResidencyTicks::UNDEFINED    971014500                       # Cumulative time (in ticks) in various power states (Tick)
system.cpu.decode.idleCycles                   192618                       # Number of cycles decode is idle (Cycle)
system.cpu.decode.blockedCycles               1195192                       # Number of cycles decode is blocked (Cycle)
system.cpu.decode.runCycles                    370159                       # Number of cycles decode is running (Cycle)
system.cpu.decode.unblockCycles                127119                       # Number of cycles decode is unblocking (Cycle)
system.cpu.decode.squashCycles                  12261                       # Number of cycles decode is squashing (Cycle)
system.cpu.decode.branchResolved               166784                       # Number of times decode resolved a branch (Count)
system.cpu.decode.branchMispred                   517                       # Number of times decode detected a branch misprediction (Count)
system.cpu.decode.decodedInsts                3494341                       # Number of instructions handled by decode (Count)
system.cpu.decode.squashedInsts                 44036                       # Number of squashed instructions handled by decode (Count)
system.cpu.dtb_walker_cache.blockedCycles::no_mshrs            0                       # number of cycles access was blocked (Cycle)
system.cpu.dtb_walker_cache.blockedCycles::no_targets            0                       # number of cycles access was blocked (Cycle)
system.cpu.dtb_walker_cache.blockedCauses::no_mshrs            0                       # number of times access was blocked (Count)
system.cpu.dtb_walker_cache.blockedCauses::no_targets            0                       # number of times access was blocked (Count)
system.cpu.dtb_walker_cache.avgBlocked::no_mshrs          nan                       # average number of cycles each access was blocked ((Cycle/Count))
system.cpu.dtb_walker_cache.avgBlocked::no_targets          nan                       # average number of cycles each access was blocked ((Cycle/Count))
system.cpu.dtb_walker_cache.replacements            0                       # number of replacements (Count)
system.cpu.dtb_walker_cache.power_state.pwrStateResidencyTicks::UNDEFINED    971014500                       # Cumulative time (in ticks) in various power states (Tick)
system.cpu.dtb_walker_cache.tags.tagsInUse            0                       # Average ticks per tags in use ((Tick/Count))
system.cpu.dtb_walker_cache.tags.totalRefs            0                       # Total number of references to valid blocks. (Count)
system.cpu.dtb_walker_cache.tags.sampledRefs            0                       # Sample count of references to valid blocks. (Count)
system.cpu.dtb_walker_cache.tags.avgRefs          nan                       # Average number of references to valid blocks. ((Count/Count))
system.cpu.dtb_walker_cache.tags.warmupTick            0                       # The tick when the warmup percentage was hit. (Tick)
system.cpu.dtb_walker_cache.tags.tagAccesses            0                       # Number of tag accesses (Count)
system.cpu.dtb_walker_cache.tags.dataAccesses            0                       # Number of data accesses (Count)
system.cpu.dtb_walker_cache.tags.power_state.pwrStateResidencyTicks::UNDEFINED    971014500                       # Cumulative time (in ticks) in various power states (Tick)
system.cpu.fetch.icacheStallCycles             213645                       # Number of cycles fetch is stalled on an Icache miss (Cycle)
system.cpu.fetch.insts                        2318973                       # Number of instructions fetch has processed (Count)
system.cpu.fetch.branches                      355270                       # Number of branches that fetch encountered (Count)
system.cpu.fetch.predictedBranches             197434                       # Number of branches that fetch has predicted taken (Count)
system.cpu.fetch.cycles                       1669830                       # Number of cycles fetch has run and was not squashing or blocked (Cycle)
system.cpu.fetch.squashCycles                   25520                       # Number of cycles fetch has spent squashing (Cycle)
system.cpu.fetch.miscStallCycles                  142                       # Number of cycles fetch has spent waiting on interrupts, or bad addresses, or out of MSHRs (Cycle)
system.cpu.fetch.pendingTrapStallCycles           972                       # Number of stall cycles due to pending traps (Cycle)
system.cpu.fetch.cacheLines                    181899                       # Number of cache lines fetched (Count)
system.cpu.fetch.icacheSquashes                  3029                       # Number of outstanding Icache misses that were squashed (Count)
system.cpu.fetch.nisnDist::samples            1897349                       # Number of instructions fetched each cycle (Total) (Count)
system.cpu.fetch.nisnDist::mean              1.953742                       # Number of instructions fetched each cycle (Total) (Count)
system.cpu.fetch.nisnDist::stdev             3.125516                       # Number of instructions fetched each cycle (Total) (Count)
system.cpu.fetch.nisnDist::underflows               0      0.00%      0.00% # Number of instructions fetched each cycle (Total) (Count)
system.cpu.fetch.nisnDist::0                  1293159     68.16%     68.16% # Number of instructions fetched each cycle (Total) (Count)
system.cpu.fetch.nisnDist::1                    19770      1.04%     69.20% # Number of instructions fetched each cycle (Total) (Count)
system.cpu.fetch.nisnDist::2                    33787      1.78%     70.98% # Number of instructions fetched each cycle (Total) (Count)
system.cpu.fetch.nisnDist::3                    38866      2.05%     73.03% # Number of instructions fetched each cycle (Total) (Count)
system.cpu.fetch.nisnDist::4                    91777      4.84%     77.86% # Number of instructions fetched each cycle (Total) (Count)
system.cpu.fetch.nisnDist::5                    29204      1.54%     79.40% # Number of instructions fetched each cycle (Total) (Count)
system.cpu.fetch.nisnDist::6                    55080      2.90%     82.31% # Number of instructions fetched each cycle (Total) (Count)
system.cpu.fetch.nisnDist::7                    26268      1.38%     83.69% # Number of instructions fetched each cycle (Total) (Count)
system.cpu.fetch.nisnDist::8                   309438     16.31%    100.00% # Number of instructions fetched each cycle (Total) (Count)
system.cpu.fetch.nisnDist::overflows                0      0.00%    100.00% # Number of instructions fetched each cycle (Total) (Count)
system.cpu.fetch.nisnDist::min_value                0                       # Number of instructions fetched each cycle (Total) (Count)
system.cpu.fetch.nisnDist::max_value                8                       # Number of instructions fetched each cycle (Total) (Count)
system.cpu.fetch.nisnDist::total              1897349                       # Number of instructions fetched each cycle (Total) (Count)
system.cpu.fetch.branchRate                  0.182937                       # Number of branch fetches per cycle (Ratio)
system.cpu.fetch.rate                        1.194097                       # Number of inst fetches per cycle ((Count/Cycle))
system.cpu.icache.demandHits::cpu.inst         180728                       # number of demand (read+write) hits (Count)
system.cpu.icache.demandHits::total            180728                       # number of demand (read+write) hits (Count)
system.cpu.icache.overallHits::cpu.inst        180728                       # number of overall hits (Count)
system.cpu.icache.overallHits::total           180728                       # number of overall hits (Count)
system.cpu.icache.demandMisses::cpu.inst         1171                       # number of demand (read+write) misses (Count)
system.cpu.icache.demandMisses::total            1171                       # number of demand (read+write) misses (Count)
system.cpu.icache.overallMisses::cpu.inst         1171                       # number of overall misses (Count)
system.cpu.icache.overallMisses::total           1171                       # number of overall misses (Count)
system.cpu.icache.demandMissLatency::cpu.inst     66264500                       # number of demand (read+write) miss ticks (Tick)
system.cpu.icache.demandMissLatency::total     66264500                       # number of demand (read+write) miss ticks (Tick)
system.cpu.icache.overallMissLatency::cpu.inst     66264500                       # number of overall miss ticks (Tick)
system.cpu.icache.overallMissLatency::total     66264500                       # number of overall miss ticks (Tick)
system.cpu.icache.demandAccesses::cpu.inst       181899                       # number of demand (read+write) accesses (Count)
system.cpu.icache.demandAccesses::total        181899                       # number of demand (read+write) accesses (Count)
system.cpu.icache.overallAccesses::cpu.inst       181899                       # number of overall (read+write) accesses (Count)
system.cpu.icache.overallAccesses::total       181899                       # number of overall (read+write) accesses (Count)
system.cpu.icache.demandMissRate::cpu.inst     0.006438                       # miss rate for demand accesses (Ratio)
system.cpu.icache.demandMissRate::total      0.006438                       # miss rate for demand accesses (Ratio)
system.cpu.icache.overallMissRate::cpu.inst     0.006438                       # miss rate for overall accesses (Ratio)
system.cpu.icache.overallMissRate::total     0.006438                       # miss rate for overall accesses (Ratio)
system.cpu.icache.demandAvgMissLatency::cpu.inst 56587.959009                       # average overall miss latency in ticks ((Tick/Count))
system.cpu.icache.demandAvgMissLatency::total 56587.959009                       # average overall miss latency in ticks ((Tick/Count))
system.cpu.icache.overallAvgMissLatency::cpu.inst 56587.959009                       # average overall miss latency ((Tick/Count))
system.cpu.icache.overallAvgMissLatency::total 56587.959009                       # average overall miss latency ((Tick/Count))
system.cpu.icache.blockedCycles::no_mshrs            0                       # number of cycles access was blocked (Cycle)
system.cpu.icache.blockedCycles::no_targets            0                       # number of cycles access was blocked (Cycle)
system.cpu.icache.blockedCauses::no_mshrs            0                       # number of times access was blocked (Count)
system.cpu.icache.blockedCauses::no_targets            0                       # number of times access was blocked (Count)
system.cpu.icache.avgBlocked::no_mshrs            nan                       # average number of cycles each access was blocked ((Cycle/Count))
system.cpu.icache.avgBlocked::no_targets          nan                       # average number of cycles each access was blocked ((Cycle/Count))
system.cpu.icache.writebacks::writebacks          361                       # number of writebacks (Count)
system.cpu.icache.writebacks::total               361                       # number of writebacks (Count)
system.cpu.icache.demandMshrHits::cpu.inst          329                       # number of demand (read+write) MSHR hits (Count)
system.cpu.icache.demandMshrHits::total           329                       # number of demand (read+write) MSHR hits (Count)
system.cpu.icache.overallMshrHits::cpu.inst          329                       # number of overall MSHR hits (Count)
system.cpu.icache.overallMshrHits::total          329                       # number of overall MSHR hits (Count)
system.cpu.icache.demandMshrMisses::cpu.inst          842                       # number of demand (read+write) MSHR misses (Count)
system.cpu.icache.demandMshrMisses::total          842                       # number of demand (read+write) MSHR misses (Count)
system.cpu.icache.overallMshrMisses::cpu.inst          842                       # number of overall MSHR misses (Count)
system.cpu.icache.overallMshrMisses::total          842                       # number of overall MSHR misses (Count)
system.cpu.icache.demandMshrMissLatency::cpu.inst     50602500                       # number of demand (read+write) MSHR miss ticks (Tick)
system.cpu.icache.demandMshrMissLatency::total     50602500                       # number of demand (read+write) MSHR miss ticks (Tick)
system.cpu.icache.overallMshrMissLatency::cpu.inst     50602500                       # number of overall MSHR miss ticks (Tick)
system.cpu.icache.overallMshrMissLatency::total     50602500                       # number of overall MSHR miss ticks (Tick)
system.cpu.icache.demandMshrMissRate::cpu.inst     0.004629                       # mshr miss ratio for demand accesses (Ratio)
system.cpu.icache.demandMshrMissRate::total     0.004629                       # mshr miss ratio for demand accesses (Ratio)
system.cpu.icache.overallMshrMissRate::cpu.inst     0.004629                       # mshr miss ratio for overall accesses (Ratio)
system.cpu.icache.overallMshrMissRate::total     0.004629                       # mshr miss ratio for overall accesses (Ratio)
system.cpu.icache.demandAvgMshrMissLatency::cpu.inst 60097.980998                       # average overall mshr miss latency ((Tick/Count))
system.cpu.icache.demandAvgMshrMissLatency::total 60097.980998                       # average overall mshr miss latency ((Tick/Count))
system.cpu.icache.overallAvgMshrMissLatency::cpu.inst 60097.980998                       # average overall mshr miss latency ((Tick/Count))
system.cpu.icache.overallAvgMshrMissLatency::total 60097.980998                       # average overall mshr miss latency ((Tick/Count))
system.cpu.icache.replacements                    361                       # number of replacements (Count)
system.cpu.icache.ReadReq.hits::cpu.inst       180728                       # number of ReadReq hits (Count)
system.cpu.icache.ReadReq.hits::total          180728                       # number of ReadReq hits (Count)
system.cpu.icache.ReadReq.misses::cpu.inst         1171                       # number of ReadReq misses (Count)
system.cpu.icache.ReadReq.misses::total          1171                       # number of ReadReq misses (Count)
system.cpu.icache.ReadReq.missLatency::cpu.inst     66264500                       # number of ReadReq miss ticks (Tick)
system.cpu.icache.ReadReq.missLatency::total     66264500                       # number of ReadReq miss ticks (Tick)
system.cpu.icache.ReadReq.accesses::cpu.inst       181899                       # number of ReadReq accesses(hits+misses) (Count)
system.cpu.icache.ReadReq.accesses::total       181899                       # number of ReadReq accesses(hits+misses) (Count)
system.cpu.icache.ReadReq.missRate::cpu.inst     0.006438                       # miss rate for ReadReq accesses (Ratio)
system.cpu.icache.ReadReq.missRate::total     0.006438                       # miss rate for ReadReq accesses (Ratio)
system.cpu.icache.ReadReq.avgMissLatency::cpu.inst 56587.959009                       # average ReadReq miss latency ((Tick/Count))
system.cpu.icache.ReadReq.avgMissLatency::total 56587.959009                       # average ReadReq miss latency ((Tick/Count))
system.cpu.icache.ReadReq.mshrHits::cpu.inst          329                       # number of ReadReq MSHR hits (Count)
system.cpu.icache.ReadReq.mshrHits::total          329                       # number of ReadReq MSHR hits (Count)
system.cpu.icache.ReadReq.mshrMisses::cpu.inst          842                       # number of ReadReq MSHR misses (Count)
system.cpu.icache.ReadReq.mshrMisses::total          842                       # number of ReadReq MSHR misses (Count)
system.cpu.icache.ReadReq.mshrMissLatency::cpu.inst     50602500                       # number of ReadReq MSHR miss ticks (Tick)
system.cpu.icache.ReadReq.mshrMissLatency::total     50602500                       # number of ReadReq MSHR miss ticks (Tick)
system.cpu.icache.ReadReq.mshrMissRate::cpu.inst     0.004629                       # mshr miss rate for ReadReq accesses (Ratio)
system.cpu.icache.ReadReq.mshrMissRate::total     0.004629                       # mshr miss rate for ReadReq accesses (Ratio)
system.cpu.icache.ReadReq.avgMshrMissLatency::cpu.inst 60097.980998                       # average ReadReq mshr miss latency ((Tick/Count))
system.cpu.icache.ReadReq.avgMshrMissLatency::total 60097.980998                       # average ReadReq mshr miss latency ((Tick/Count))
system.cpu.icache.power_state.pwrStateResidencyTicks::UNDEFINED    971014500                       # Cumulative time (in ticks) in various power states (Tick)
system.cpu.icache.tags.tagsInUse           451.287447                       # Average ticks per tags in use ((Tick/Count))
system.cpu.icache.tags.totalRefs                22241                       # Total number of references to valid blocks. (Count)
system.cpu.icache.tags.sampledRefs                361                       # Sample count of references to valid blocks. (Count)
system.cpu.icache.tags.avgRefs              61.609418                       # Average number of references to valid blocks. ((Count/Count))
system.cpu.icache.tags.warmupTick               77000                       # The tick when the warmup percentage was hit. (Tick)
system.cpu.icache.tags.occupancies::cpu.inst   451.287447                       # Average occupied blocks per tick, per requestor ((Count/Tick))
system.cpu.icache.tags.avgOccs::cpu.inst     0.881421                       # Average percentage of cache occupancy ((Ratio/Tick))
system.cpu.icache.tags.avgOccs::total        0.881421                       # Average percentage of cache occupancy ((Ratio/Tick))
system.cpu.icache.tags.occupanciesTaskId::1024          480                       # Occupied blocks per task id (Count)
system.cpu.icache.tags.ageTaskId_1024::0            1                       # Occupied blocks per task id, per block age (Count)
system.cpu.icache.tags.ageTaskId_1024::2          479                       # Occupied blocks per task id, per block age (Count)
system.cpu.icache.tags.ratioOccsTaskId::1024     0.937500                       # Ratio of occupied blocks and all blocks, per task id (Ratio)
system.cpu.icache.tags.tagAccesses             364639                       # Number of tag accesses (Count)
system.cpu.icache.tags.dataAccesses            364639                       # Number of data accesses (Count)
system.cpu.icache.tags.power_state.pwrStateResidencyTicks::UNDEFINED    971014500                       # Cumulative time (in ticks) in various power states (Tick)
system.cpu.iew.idleCycles                           0                       # Number of cycles IEW is idle (Cycle)
system.cpu.iew.squashCycles                     12261                       # Number of cycles IEW is squashing (Cycle)
system.cpu.iew.blockCycles                     509213                       # Number of cycles IEW is blocking (Cycle)
system.cpu.iew.unblockCycles                    15200                       # Number of cycles IEW is unblocking (Cycle)
system.cpu.iew.dispatchedInsts                3340664                       # Number of instructions dispatched to IQ (Count)
system.cpu.iew.dispSquashedInsts                  421                       # Number of squashed instructions skipped by dispatch (Count)
system.cpu.iew.dispLoadInsts                   529904                       # Number of dispatched load instructions (Count)
system.cpu.iew.dispStoreInsts                  176997                       # Number of dispatched store instructions (Count)
system.cpu.iew.dispNonSpecInsts                    85                       # Number of dispatched non-speculative instructions (Count)
system.cpu.iew.iqFullEvents                      2889                       # Number of times the IQ has become full, causing a stall (Count)
system.cpu.iew.lsqFullEvents                     9272                       # Number of times the LSQ has become full, causing a stall (Count)
system.cpu.iew.memOrderViolationEvents             90                       # Number of memory order violations (Count)
system.cpu.iew.predictedTakenIncorrect           5591                       # Number of branches that were predicted taken incorrectly (Count)
system.cpu.iew.predictedNotTakenIncorrect         6921                       # Number of branches that were predicted not taken incorrectly (Count)
system.cpu.iew.branchMispredicts                12512                       # Number of branch mispredicts detected at execute (Count)
system.cpu.iew.instsToCommit                  2978116                       # Cumulative count of insts sent to commit (Count)
system.cpu.iew.writebackCount                 2971574                       # Cumulative count of insts written-back (Count)
system.cpu.iew.producerInst                   2405848                       # Number of instructions producing a value (Count)
system.cpu.iew.consumerInst                   4415232                       # Number of instructions consuming a value (Count)
system.cpu.iew.wbRate                        1.530138                       # Insts written-back per cycle ((Count/Cycle))
system.cpu.iew.wbFanout                      0.544897                       # Average fanout of values written-back ((Count/Count))
system.cpu.interrupts.clk_domain.clock           8000                       # Clock period in ticks (Tick)
system.cpu.itb_walker_cache.blockedCycles::no_mshrs            0                       # number of cycles access was blocked (Cycle)
system.cpu.itb_walker_cache.blockedCycles::no_targets            0                       # number of cycles access was blocked (Cycle)
system.cpu.itb_walker_cache.blockedCauses::no_mshrs            0                       # number of times access was blocked (Count)
system.cpu.itb_walker_cache.blockedCauses::no_targets            0                       # number of times access was blocked (Count)
system.cpu.itb_walker_cache.avgBlocked::no_mshrs          nan                       # average number of cycles each access was blocked ((Cycle/Count))
system.cpu.itb_walker_cache.avgBlocked::no_targets          nan                       # average number of cycles each access was blocked ((Cycle/Count))
system.cpu.itb_walker_cache.replacements            0                       # number of replacements (Count)
system.cpu.itb_walker_cache.power_state.pwrStateResidencyTicks::UNDEFINED    971014500                       # Cumulative time (in ticks) in various power states (Tick)
system.cpu.itb_walker_cache.tags.tagsInUse            0                       # Average ticks per tags in use ((Tick/Count))
system.cpu.itb_walker_cache.tags.totalRefs            0                       # Total number of references to valid blocks. (Count)
system.cpu.itb_walker_cache.tags.sampledRefs            0                       # Sample count of references to valid blocks. (Count)
system.cpu.itb_walker_cache.tags.avgRefs          nan                       # Average number of references to valid blocks. ((Count/Count))
system.cpu.itb_walker_cache.tags.warmupTick            0                       # The tick when the warmup percentage was hit. (Tick)
system.cpu.itb_walker_cache.tags.tagAccesses            0                       # Number of tag accesses (Count)
system.cpu.itb_walker_cache.tags.dataAccesses            0                       # Number of data accesses (Count)
system.cpu.itb_walker_cache.tags.power_state.pwrStateResidencyTicks::UNDEFINED    971014500                       # Cumulative time (in ticks) in various power states (Tick)
system.cpu.lsq0.forwLoads                       96676                       # Number of loads that had data forwarded from stores (Count)
system.cpu.lsq0.squashedLoads                  120417                       # Number of loads squashed (Count)
system.cpu.lsq0.ignoredResponses                  192                       # Number of memory responses ignored because the instruction is squashed (Count)
system.cpu.lsq0.memOrderViolation                  90                       # Number of memory ordering violations (Count)
system.cpu.lsq0.squashedStores                  38267                       # Number of stores squashed (Count)
system.cpu.lsq0.rescheduledLoads                    0                       # Number of loads that were rescheduled (Count)
system.cpu.lsq0.blockedByCache                    444                       # Number of times an access to memory failed due to the cache being blocked (Count)
system.cpu.lsq0.loadToUse::samples             409480                       # Distribution of cycle latency between the first time a load is issued and its completion (Unspecified)
system.cpu.lsq0.loadToUse::mean              9.627464                       # Distribution of cycle latency between the first time a load is issued and its completion (Unspecified)
system.cpu.lsq0.loadToUse::stdev            31.669645                       # Distribution of cycle latency between the first time a load is issued and its completion (Unspecified)
system.cpu.lsq0.loadToUse::0-9                 387301     94.58%     94.58% # Distribution of cycle latency between the first time a load is issued and its completion (Unspecified)
system.cpu.lsq0.loadToUse::10-19                  449      0.11%     94.69% # Distribution of cycle latency between the first time a load is issued and its completion (Unspecified)
system.cpu.lsq0.loadToUse::20-29                  165      0.04%     94.73% # Distribution of cycle latency between the first time a load is issued and its completion (Unspecified)
system.cpu.lsq0.loadToUse::30-39                   45      0.01%     94.74% # Distribution of cycle latency between the first time a load is issued and its completion (Unspecified)
system.cpu.lsq0.loadToUse::40-49                   54      0.01%     94.76% # Distribution of cycle latency between the first time a load is issued and its completion (Unspecified)
system.cpu.lsq0.loadToUse::50-59                   53      0.01%     94.77% # Distribution of cycle latency between the first time a load is issued and its completion (Unspecified)
system.cpu.lsq0.loadToUse::60-69                  136      0.03%     94.80% # Distribution of cycle latency between the first time a load is issued and its completion (Unspecified)
system.cpu.lsq0.loadToUse::70-79                  750      0.18%     94.99% # Distribution of cycle latency between the first time a load is issued and its completion (Unspecified)
system.cpu.lsq0.loadToUse::80-89                 1019      0.25%     95.24% # Distribution of cycle latency between the first time a load is issued and its completion (Unspecified)
system.cpu.lsq0.loadToUse::90-99                  868      0.21%     95.45% # Distribution of cycle latency between the first time a load is issued and its completion (Unspecified)
[...]
system.mem_ctrls.dram.bwWrite::total        137132488                       # Write bandwidth from this memory ((Byte/Second))
system.mem_ctrls.dram.bwTotal::writebacks    137132488                       # Total bandwidth to/from this memory ((Byte/Second))
system.mem_ctrls.dram.bwTotal::cpu.inst        162351                       # Total bandwidth to/from this memory ((Byte/Second))
system.mem_ctrls.dram.bwTotal::cpu.data     138918349                       # Total bandwidth to/from this memory ((Byte/Second))
system.mem_ctrls.dram.bwTotal::total        276213188                       # Total bandwidth to/from this memory ((Byte/Second))
system.mem_ctrls.dram.readBursts                 5137                       # Number of DRAM read bursts (Count)
system.mem_ctrls.dram.writeBursts                5083                       # Number of DRAM write bursts (Count)
system.mem_ctrls.dram.perBankRdBursts::0          266                       # Per bank write bursts (Count)
system.mem_ctrls.dram.perBankRdBursts::1          898                       # Per bank write bursts (Count)
system.mem_ctrls.dram.perBankRdBursts::2          568                       # Per bank write bursts (Count)
system.mem_ctrls.dram.perBankRdBursts::3           18                       # Per bank write bursts (Count)
system.mem_ctrls.dram.perBankRdBursts::4           14                       # Per bank write bursts (Count)
system.mem_ctrls.dram.perBankRdBursts::5           14                       # Per bank write bursts (Count)
system.mem_ctrls.dram.perBankRdBursts::6            1                       # Per bank write bursts (Count)
system.mem_ctrls.dram.perBankRdBursts::7            1                       # Per bank write bursts (Count)
system.mem_ctrls.dram.perBankRdBursts::8          121                       # Per bank write bursts (Count)
system.mem_ctrls.dram.perBankRdBursts::9          768                       # Per bank write bursts (Count)
system.mem_ctrls.dram.perBankRdBursts::10          506                       # Per bank write bursts (Count)
system.mem_ctrls.dram.perBankRdBursts::11           42                       # Per bank write bursts (Count)
system.mem_ctrls.dram.perBankRdBursts::12          255                       # Per bank write bursts (Count)
system.mem_ctrls.dram.perBankRdBursts::13          898                       # Per bank write bursts (Count)
system.mem_ctrls.dram.perBankRdBursts::14          614                       # Per bank write bursts (Count)
system.mem_ctrls.dram.perBankRdBursts::15          153                       # Per bank write bursts (Count)
system.mem_ctrls.dram.perBankWrBursts::0          254                       # Per bank write bursts (Count)
system.mem_ctrls.dram.perBankWrBursts::1          834                       # Per bank write bursts (Count)
system.mem_ctrls.dram.perBankWrBursts::2          613                       # Per bank write bursts (Count)
system.mem_ctrls.dram.perBankWrBursts::3          131                       # Per bank write bursts (Count)
system.mem_ctrls.dram.perBankWrBursts::4           55                       # Per bank write bursts (Count)
system.mem_ctrls.dram.perBankWrBursts::5           64                       # Per bank write bursts (Count)
system.mem_ctrls.dram.perBankWrBursts::6            0                       # Per bank write bursts (Count)
system.mem_ctrls.dram.perBankWrBursts::7            0                       # Per bank write bursts (Count)
system.mem_ctrls.dram.perBankWrBursts::8          125                       # Per bank write bursts (Count)
system.mem_ctrls.dram.perBankWrBursts::9          896                       # Per bank write bursts (Count)
system.mem_ctrls.dram.perBankWrBursts::10          585                       # Per bank write bursts (Count)
system.mem_ctrls.dram.perBankWrBursts::11           43                       # Per bank write bursts (Count)
system.mem_ctrls.dram.perBankWrBursts::12          203                       # Per bank write bursts (Count)
system.mem_ctrls.dram.perBankWrBursts::13          768                       # Per bank write bursts (Count)
system.mem_ctrls.dram.perBankWrBursts::14          488                       # Per bank write bursts (Count)
system.mem_ctrls.dram.perBankWrBursts::15           24                       # Per bank write bursts (Count)
system.mem_ctrls.dram.totQLat                37829250                       # Total ticks spent queuing (Tick)
system.mem_ctrls.dram.totBusLat              25685000                       # Total ticks spent in databus transfers (Tick)
system.mem_ctrls.dram.totMemAccLat          134148000                       # Total ticks spent from burst creation until serviced by the DRAM (Tick)
system.mem_ctrls.dram.avgQLat                 7364.07                       # Average queueing delay per DRAM burst ((Tick/Count))
system.mem_ctrls.dram.avgBusLat               5000.00                       # Average bus latency per DRAM burst ((Tick/Count))
system.mem_ctrls.dram.avgMemAccLat           26114.07                       # Average memory access latency per DRAM burst ((Tick/Count))
system.mem_ctrls.dram.readRowHits                4649                       # Number of row buffer hits during reads (Count)
system.mem_ctrls.dram.writeRowHits               4506                       # Number of row buffer hits during writes (Count)
system.mem_ctrls.dram.readRowHitRate            90.50                       # Row buffer hit rate for reads (Ratio)
system.mem_ctrls.dram.writeRowHitRate           88.65                       # Row buffer hit rate for writes (Ratio)
system.mem_ctrls.dram.bytesPerActivate::samples         1073                       # Bytes accessed per row activation (Byte)
system.mem_ctrls.dram.bytesPerActivate::mean   611.310345                       # Bytes accessed per row activation (Byte)
system.mem_ctrls.dram.bytesPerActivate::gmean   426.756519                       # Bytes accessed per row activation (Byte)
system.mem_ctrls.dram.bytesPerActivate::stdev   387.306063                       # Bytes accessed per row activation (Byte)
system.mem_ctrls.dram.bytesPerActivate::0-127          123     11.46%     11.46% # Bytes accessed per row activation (Byte)
system.mem_ctrls.dram.bytesPerActivate::128-255          178     16.59%     28.05% # Bytes accessed per row activation (Byte)
system.mem_ctrls.dram.bytesPerActivate::256-383          103      9.60%     37.65% # Bytes accessed per row activation (Byte)
system.mem_ctrls.dram.bytesPerActivate::384-511           27      2.52%     40.17% # Bytes accessed per row activation (Byte)
system.mem_ctrls.dram.bytesPerActivate::512-639           30      2.80%     42.96% # Bytes accessed per row activation (Byte)
system.mem_ctrls.dram.bytesPerActivate::640-767          155     14.45%     57.41% # Bytes accessed per row activation (Byte)
system.mem_ctrls.dram.bytesPerActivate::768-895           34      3.17%     60.58% # Bytes accessed per row activation (Byte)
system.mem_ctrls.dram.bytesPerActivate::896-1023           33      3.08%     63.65% # Bytes accessed per row activation (Byte)
system.mem_ctrls.dram.bytesPerActivate::1024-1151          390     36.35%    100.00% # Bytes accessed per row activation (Byte)
system.mem_ctrls.dram.bytesPerActivate::total         1073                       # Bytes accessed per row activation (Byte)
system.mem_ctrls.dram.bytesRead                328768                       # Total bytes read (Byte)
system.mem_ctrls.dram.bytesWritten             325312                       # Total bytes written (Byte)
system.mem_ctrls.dram.avgRdBW              138.999525                       # Average DRAM read bandwidth in MiBytes/s ((Byte/Second))
system.mem_ctrls.dram.avgWrBW              137.538365                       # Average DRAM write bandwidth in MiBytes/s ((Byte/Second))
system.mem_ctrls.dram.peakBW                 12800.00                       # Theoretical peak bandwidth in MiByte/s ((Byte/Second))
system.mem_ctrls.dram.busUtil                    2.16                       # Data bus utilization in percentage (Ratio)
system.mem_ctrls.dram.busUtilRead                1.09                       # Data bus utilization in percentage for reads (Ratio)
system.mem_ctrls.dram.busUtilWrite               1.07                       # Data bus utilization in percentage for writes (Ratio)
system.mem_ctrls.dram.pageHitRate               89.58                       # Row buffer hit rate, read and write combined (Ratio)
system.mem_ctrls.dram.power_state.pwrStateResidencyTicks::UNDEFINED   2365245500                       # Cumulative time (in ticks) in various power states (Tick)
system.mem_ctrls.dram.rank0.actEnergy         2870280                       # Energy for activate commands per rank (pJ) (Joule)
system.mem_ctrls.dram.rank0.preEnergy         1544565                       # Energy for precharge commands per rank (pJ) (Joule)
system.mem_ctrls.dram.rank0.readEnergy       12716340                       # Energy for read commands per rank (pJ) (Joule)
system.mem_ctrls.dram.rank0.writeEnergy      10184220                       # Energy for write commands per rank (pJ) (Joule)
system.mem_ctrls.dram.rank0.refreshEnergy 186850560.000000                       # Energy for refresh commands per rank (pJ) (Joule)
system.mem_ctrls.dram.rank0.actBackEnergy    429354210                       # Energy for active background per rank (pJ) (Joule)
system.mem_ctrls.dram.rank0.preBackEnergy    546692640                       # Energy for precharge background per rank (pJ) (Joule)
system.mem_ctrls.dram.rank0.actPowerDownEnergy            0                       # Energy for active power-down per rank (pJ) (Joule)
system.mem_ctrls.dram.rank0.prePowerDownEnergy            0                       # Energy for precharge power-down per rank (pJ) (Joule)
system.mem_ctrls.dram.rank0.selfRefreshEnergy            0                       # Energy for self refresh per rank (pJ) (Joule)
system.mem_ctrls.dram.rank0.totalEnergy    1190212815                       # Total energy per rank (pJ) (Joule)
system.mem_ctrls.dram.rank0.averagePower   503.208997                       # Core power per rank (mW) (Watt)
system.mem_ctrls.dram.rank0.totalIdleTime            0                       # Total Idle time Per DRAM Rank (Tick)
system.mem_ctrls.dram.rank0.pwrStateTime::IDLE   1416113500                       # Time in different power states (Tick)
system.mem_ctrls.dram.rank0.pwrStateTime::REF     79040000                       # Time in different power states (Tick)
system.mem_ctrls.dram.rank0.pwrStateTime::SREF            0                       # Time in different power states (Tick)
system.mem_ctrls.dram.rank0.pwrStateTime::PRE_PDN            0                       # Time in different power states (Tick)
system.mem_ctrls.dram.rank0.pwrStateTime::ACT    870092000                       # Time in different power states (Tick)
system.mem_ctrls.dram.rank0.pwrStateTime::ACT_PDN            0                       # Time in different power states (Tick)
system.mem_ctrls.dram.rank1.actEnergy         4733820                       # Energy for activate commands per rank (pJ) (Joule)
system.mem_ctrls.dram.rank1.preEnergy         2527470                       # Energy for precharge commands per rank (pJ) (Joule)
system.mem_ctrls.dram.rank1.readEnergy       23968980                       # Energy for read commands per rank (pJ) (Joule)
system.mem_ctrls.dram.rank1.writeEnergy      16349040                       # Energy for write commands per rank (pJ) (Joule)
system.mem_ctrls.dram.rank1.refreshEnergy 186850560.000000                       # Energy for refresh commands per rank (pJ) (Joule)
system.mem_ctrls.dram.rank1.actBackEnergy    657894570                       # Energy for active background per rank (pJ) (Joule)
system.mem_ctrls.dram.rank1.preBackEnergy    354237600                       # Energy for precharge background per rank (pJ) (Joule)
system.mem_ctrls.dram.rank1.actPowerDownEnergy            0                       # Energy for active power-down per rank (pJ) (Joule)
system.mem_ctrls.dram.rank1.prePowerDownEnergy            0                       # Energy for precharge power-down per rank (pJ) (Joule)
system.mem_ctrls.dram.rank1.selfRefreshEnergy            0                       # Energy for self refresh per rank (pJ) (Joule)
system.mem_ctrls.dram.rank1.totalEnergy    1246562040                       # Total energy per rank (pJ) (Joule)
system.mem_ctrls.dram.rank1.averagePower   527.032834                       # Core power per rank (mW) (Watt)
system.mem_ctrls.dram.rank1.totalIdleTime            0                       # Total Idle time Per DRAM Rank (Tick)
system.mem_ctrls.dram.rank1.pwrStateTime::IDLE    914369250                       # Time in different power states (Tick)
system.mem_ctrls.dram.rank1.pwrStateTime::REF     79040000                       # Time in different power states (Tick)
system.mem_ctrls.dram.rank1.pwrStateTime::SREF            0                       # Time in different power states (Tick)
system.mem_ctrls.dram.rank1.pwrStateTime::PRE_PDN            0                       # Time in different power states (Tick)
system.mem_ctrls.dram.rank1.pwrStateTime::ACT   1371836250                       # Time in different power states (Tick)
system.mem_ctrls.dram.rank1.pwrStateTime::ACT_PDN            0                       # Time in different power states (Tick)
system.mem_ctrls.power_state.pwrStateResidencyTicks::UNDEFINED   2365245500                       # Cumulative time (in ticks) in various power states (Tick)
system.membus.transDist::ReadResp                  79                       # Transaction distribution (Count)
system.membus.transDist::WritebackDirty          5068                       # Transaction distribution (Count)
system.membus.transDist::WritebackClean             5                       # Transaction distribution (Count)
system.membus.transDist::CleanEvict                66                       # Transaction distribution (Count)
system.membus.transDist::ReadExReq               5062                       # Transaction distribution (Count)
system.membus.transDist::ReadExResp              5062                       # Transaction distribution (Count)
system.membus.transDist::ReadCleanReq               6                       # Transaction distribution (Count)
system.membus.transDist::ReadSharedReq             69                       # Transaction distribution (Count)
system.membus.pktCount_system.cpu.icache.mem_side_port::system.mem_ctrls.port           18                       # Packet count per connected requestor and responder (Count)
system.membus.pktCount_system.cpu.icache.mem_side_port::total           18                       # Packet count per connected requestor and responder (Count)
system.membus.pktCount_system.cpu.dcache.mem_side_port::system.mem_ctrls.port        15399                       # Packet count per connected requestor and responder (Count)
system.membus.pktCount_system.cpu.dcache.mem_side_port::total        15399                       # Packet count per connected requestor and responder (Count)
system.membus.pktCount::total                   15417                       # Packet count per connected requestor and responder (Count)
system.membus.pktSize_system.cpu.icache.mem_side_port::system.mem_ctrls.port          768                       # Cumulative packet size per connected requestor and responder (Byte)
system.membus.pktSize_system.cpu.icache.mem_side_port::total          768                       # Cumulative packet size per connected requestor and responder (Byte)
system.membus.pktSize_system.cpu.dcache.mem_side_port::system.mem_ctrls.port       652928                       # Cumulative packet size per connected requestor and responder (Byte)
system.membus.pktSize_system.cpu.dcache.mem_side_port::total       652928                       # Cumulative packet size per connected requestor and responder (Byte)
system.membus.pktSize::total                   653696                       # Cumulative packet size per connected requestor and responder (Byte)
system.membus.snoops                                0                       # Total snoops (Count)
system.membus.snoopTraffic                          0                       # Total snoop traffic (Byte)
system.membus.snoopFanout::samples               5137                       # Request fanout histogram (Count)
system.membus.snoopFanout::mean              0.000389                       # Request fanout histogram (Count)
system.membus.snoopFanout::stdev             0.019730                       # Request fanout histogram (Count)
system.membus.snoopFanout::underflows               0      0.00%      0.00% # Request fanout histogram (Count)
system.membus.snoopFanout::0                     5135     99.96%     99.96% # Request fanout histogram (Count)
system.membus.snoopFanout::1                        2      0.04%    100.00% # Request fanout histogram (Count)
system.membus.snoopFanout::2                        0      0.00%    100.00% # Request fanout histogram (Count)
system.membus.snoopFanout::3                        0      0.00%    100.00% # Request fanout histogram (Count)
system.membus.snoopFanout::4                        0      0.00%    100.00% # Request fanout histogram (Count)
system.membus.snoopFanout::overflows                0      0.00%    100.00% # Request fanout histogram (Count)
system.membus.snoopFanout::min_value                0                       # Request fanout histogram (Count)
system.membus.snoopFanout::max_value                1                       # Request fanout histogram (Count)
system.membus.snoopFanout::total                 5137                       # Request fanout histogram (Count)
system.membus.power_state.pwrStateResidencyTicks::UNDEFINED   2365245500                       # Cumulative time (in ticks) in various power states (Tick)
system.membus.reqLayer2.occupancy            31325000                       # Layer occupancy (ticks) (Tick)
system.membus.reqLayer2.utilization               0.0                       # Layer utilization (Ratio)
system.membus.respLayer1.occupancy              38000                       # Layer occupancy (ticks) (Tick)
system.membus.respLayer1.utilization              0.0                       # Layer utilization (Ratio)
system.membus.respLayer2.occupancy           27052000                       # Layer occupancy (ticks) (Tick)
system.membus.respLayer2.utilization              0.0                       # Layer utilization (Ratio)
system.membus.snoop_filter.totRequests          10276                       # Total number of requests made to the snoop filter. (Count)
system.membus.snoop_filter.hitSingleRequests         5139                       # Number of requests hitting in the snoop filter with a single holder of the requested data. (Count)
system.membus.snoop_filter.hitMultiRequests            2                       # Number of requests hitting in the snoop filter with multiple (>1) holders of the requested data. (Count)
system.membus.snoop_filter.totSnoops                0                       # Total number of snoops made to the snoop filter. (Count)
system.membus.snoop_filter.hitSingleSnoops            0                       # Number of snoops hitting in the snoop filter with a single holder of the requested data. (Count)
system.membus.snoop_filter.hitMultiSnoops            0                       # Number of snoops hitting in the snoop filter with multiple (>1) holders of the requested data. (Count)
system.voltage_domain.voltage                       1                       # Voltage in Volts (Volt)
system.workload.inst.arm                            0                       # number of arm instructions executed (Count)
system.workload.inst.quiesce                        0                       # number of quiesce instructions executed (Count)

---------- End Simulation Statistics   ----------
