
---------- Begin Simulation Statistics ----------
simSeconds                                   0.095150                       # Number of seconds simulated (Second)
simTicks                                  95149844500                       # Number of ticks simulated (Tick)
finalTick                                 95149844500                       # Number of ticks from beginning of simulation (restored from checkpoints and never reset) (Tick)
simFreq                                  1000000000000                       # The number of ticks per simulated second ((Tick/Second))
hostSeconds                                    293.91                       # Real time elapsed on the host (Second)
hostTickRate                                323738822                       # The number of ticks simulated per host second (ticks/s) ((Tick/Second))
hostMemory                                    8729648                       # Number of bytes of host memory used (Byte)
simInsts                                     10000000                       # Number of instructions simulated (Count)
simOps                                       19972351                       # Number of ops (including micro ops) simulated (Count)
hostInstRate                                    34024                       # Simulator instruction rate (inst/s) ((Count/Second))
hostOpRate                                      67954                       # Simulator op (including micro ops) rate (op/s) ((Count/Second))
system.clk_domain.clock                          1000                       # Clock period in ticks (Tick)
system.cpu.numCycles                        190299690                       # Number of cpu cycles simulated (Cycle)
system.cpu.numWorkItemsStarted                      0                       # Number of work items this cpu started (Count)
system.cpu.numWorkItemsCompleted                    0                       # Number of work items this cpu completed (Count)
system.cpu.instsAdded                        21468847                       # Number of instructions added to the IQ (excludes non-spec) (Count)
system.cpu.nonSpecInstsAdded                      159                       # Number of non-speculative instructions added to the IQ (Count)
system.cpu.instsIssued                       21381836                       # Number of instructions issued (Count)
system.cpu.squashedInstsIssued                   1067                       # Number of squashed instructions issued (Count)
system.cpu.squashedInstsExamined              1496654                       # Number of squashed instructions iterated over during squash; mainly for profiling (Count)
system.cpu.squashedOperandsExamined           3179340                       # Number of squashed operands that are examined and possibly removed from graph (Count)
system.cpu.squashedNonSpecRemoved                  96                       # Number of squashed non-spec instructions that were removed (Count)
system.cpu.numIssuedDist::samples           190224014                       # Number of insts issued each cycle (Count)
system.cpu.numIssuedDist::mean               0.112403                       # Number of insts issued each cycle (Count)
system.cpu.numIssuedDist::stdev              0.462531                       # Number of insts issued each cycle (Count)
system.cpu.numIssuedDist::underflows                0      0.00%      0.00% # Number of insts issued each cycle (Count)
system.cpu.numIssuedDist::0                 174178384     91.56%     91.56% # Number of insts issued each cycle (Count)
system.cpu.numIssuedDist::1                  13821383      7.27%     98.83% # Number of insts issued each cycle (Count)
system.cpu.numIssuedDist::2                    526208      0.28%     99.11% # Number of insts issued each cycle (Count)
system.cpu.numIssuedDist::3                    751533      0.40%     99.50% # Number of insts issued each cycle (Count)
system.cpu.numIssuedDist::4                    766816      0.40%     99.91% # Number of insts issued each cycle (Count)
system.cpu.numIssuedDist::5                     62761      0.03%     99.94% # Number of insts issued each cycle (Count)
system.cpu.numIssuedDist::6                     16642      0.01%     99.95% # Number of insts issued each cycle (Count)
system.cpu.numIssuedDist::7                     29779      0.02%     99.96% # Number of insts issued each cycle (Count)
system.cpu.numIssuedDist::8                     70508      0.04%    100.00% # Number of insts issued each cycle (Count)
system.cpu.numIssuedDist::overflows                 0      0.00%    100.00% # Number of insts issued each cycle (Count)
system.cpu.numIssuedDist::min_value                 0                       # Number of insts issued each cycle (Count)
system.cpu.numIssuedDist::max_value                 8                       # Number of insts issued each cycle (Count)
system.cpu.numIssuedDist::total             190224014                       # Number of insts issued each cycle (Count)
system.cpu.statFuBusy::No_OpClass                   0      0.00%      0.00% # attempts to use FU when none available (Count)
system.cpu.statFuBusy::IntAlu                    5768      4.93%      4.93% # attempts to use FU when none available (Count)
system.cpu.statFuBusy::IntMult                      0      0.00%      4.93% # attempts to use FU when none available (Count)
system.cpu.statFuBusy::IntDiv                       0      0.00%      4.93% # attempts to use FU when none available (Count)
system.cpu.statFuBusy::FloatAdd                     0      0.00%      4.93% # attempts to use FU when none available (Count)
system.cpu.statFuBusy::FloatCmp                     0      0.00%      4.93% # attempts to use FU when none available (Count)
system.cpu.statFuBusy::FloatCvt                     0      0.00%      4.93% # attempts to use FU when none available (Count)
system.cpu.statFuBusy::FloatMult                    0      0.00%      4.93% # attempts to use FU when none available (Count)
system.cpu.statFuBusy::FloatMultAcc                 0      0.00%      4.93% # attempts to use FU when none available (Count)
system.cpu.statFuBusy::FloatDiv                     0      0.00%      4.93% # attempts to use FU when none available (Count)
system.cpu.statFuBusy::FloatMisc                    0      0.00%      4.93% # attempts to use FU when none available (Count)
system.cpu.statFuBusy::FloatSqrt                    0      0.00%      4.93% # attempts to use FU when none available (Count)
system.cpu.statFuBusy::SimdAdd                      0      0.00%      4.93% # attempts to use FU when none available (Count)
system.cpu.statFuBusy::SimdAddAcc                   0      0.00%      4.93% # attempts to use FU when none available (Count)
system.cpu.statFuBusy::SimdAlu                      3      0.00%      4.93% # attempts to use FU when none available (Count)
system.cpu.statFuBusy::SimdCmp                      0      0.00%      4.93% # attempts to use FU when none available (Count)
system.cpu.statFuBusy::SimdCvt                      0      0.00%      4.93% # attempts to use FU when none available (Count)
system.cpu.statFuBusy::SimdMisc                     0      0.00%      4.93% # attempts to use FU when none available (Count)
system.cpu.statFuBusy::SimdMult                     0      0.00%      4.93% # attempts to use FU when none available (Count)
system.cpu.statFuBusy::SimdMultAcc                  0      0.00%      4.93% # attempts to use FU when none available (Count)
system.cpu.statFuBusy::SimdShift                    0      0.00%      4.93% # attempts to use FU when none available (Count)
system.cpu.statFuBusy::SimdShiftAcc                 0      0.00%      4.93% # attempts to use FU when none available (Count)
system.cpu.statFuBusy::SimdDiv                      0      0.00%      4.93% # attempts to use FU when none available (Count)
system.cpu.statFuBusy::SimdSqrt                     0      0.00%      4.93% # attempts to use FU when none available (Count)
system.cpu.statFuBusy::SimdFloatAdd                 0      0.00%      4.93% # attempts to use FU when none available (Count)
system.cpu.statFuBusy::SimdFloatAlu                 0      0.00%      4.93% # attempts to use FU when none available (Count)
system.cpu.statFuBusy::SimdFloatCmp                 0      0.00%      4.93% # attempts to use FU when none available (Count)
system.cpu.statFuBusy::SimdFloatCvt                 0      0.00%      4.93% # attempts to use FU when none available (Count)
system.cpu.statFuBusy::SimdFloatDiv                 0      0.00%      4.93% # attempts to use FU when none available (Count)
system.cpu.statFuBusy::SimdFloatMisc                0      0.00%      4.93% # attempts to use FU when none available (Count)
system.cpu.statFuBusy::SimdFloatMult                0      0.00%      4.93% # attempts to use FU when none available (Count)
system.cpu.statFuBusy::SimdFloatMultAcc             0      0.00%      4.93% # attempts to use FU when none available (Count)
system.cpu.statFuBusy::SimdFloatSqrt                0      0.00%      4.93% # attempts to use FU when none available (Count)
system.cpu.statFuBusy::SimdReduceAdd                0      0.00%      4.93% # attempts to use FU when none available (Count)
system.cpu.statFuBusy::SimdReduceAlu                0      0.00%      4.93% # attempts to use FU when none available (Count)
system.cpu.statFuBusy::SimdReduceCmp                0      0.00%      4.93% # attempts to use FU when none available (Count)
system.cpu.statFuBusy::SimdFloatReduceAdd            0      0.00%      4.93% # attempts to use FU when none available (Count)
system.cpu.statFuBusy::SimdFloatReduceCmp            0      0.00%      4.93% # attempts to use FU when none available (Count)
system.cpu.statFuBusy::SimdAes                      0      0.00%      4.93% # attempts to use FU when none available (Count)
system.cpu.statFuBusy::SimdAesMix                   0      0.00%      4.93% # attempts to use FU when none available (Count)
system.cpu.statFuBusy::SimdSha1Hash                 0      0.00%      4.93% # attempts to use FU when none available (Count)
system.cpu.statFuBusy::SimdSha1Hash2                0      0.00%      4.93% # attempts to use FU when none available (Count)
system.cpu.statFuBusy::SimdSha256Hash               0      0.00%      4.93% # attempts to use FU when none available (Count)
system.cpu.statFuBusy::SimdSha256Hash2              0      0.00%      4.93% # attempts to use FU when none available (Count)
system.cpu.statFuBusy::SimdShaSigma2                0      0.00%      4.93% # attempts to use FU when none available (Count)
system.cpu.statFuBusy::SimdShaSigma3                0      0.00%      4.93% # attempts to use FU when none available (Count)
system.cpu.statFuBusy::SimdPredAlu                  0      0.00%      4.93% # attempts to use FU when none available (Count)
system.cpu.statFuBusy::MemRead                    808      0.69%      5.63% # attempts to use FU when none available (Count)
system.cpu.statFuBusy::MemWrite                   853      0.73%      6.35% # attempts to use FU when none available (Count)
system.cpu.statFuBusy::FloatMemRead                29      0.02%      6.38% # attempts to use FU when none available (Count)
system.cpu.statFuBusy::FloatMemWrite           109489     93.62%    100.00% # attempts to use FU when none available (Count)
system.cpu.statFuBusy::IprAccess                    0      0.00%    100.00% # attempts to use FU when none available (Count)
system.cpu.statFuBusy::InstPrefetch                 0      0.00%    100.00% # attempts to use FU when none available (Count)
system.cpu.statIssuedInstType_0::No_OpClass         2024      0.01%      0.01% # Number of instructions issued per FU type, per thread (Count)
system.cpu.statIssuedInstType_0::IntAlu       9362128     43.79%     43.79% # Number of instructions issued per FU type, per thread (Count)
system.cpu.statIssuedInstType_0::IntMult          102      0.00%     43.80% # Number of instructions issued per FU type, per thread (Count)
system.cpu.statIssuedInstType_0::IntDiv          1933      0.01%     43.80% # Number of instructions issued per FU type, per thread (Count)
system.cpu.statIssuedInstType_0::FloatAdd          113      0.00%     43.80% # Number of instructions issued per FU type, per thread (Count)
system.cpu.statIssuedInstType_0::FloatCmp            0      0.00%     43.80% # Number of instructions issued per FU type, per thread (Count)
system.cpu.statIssuedInstType_0::FloatCvt          112      0.00%     43.81% # Number of instructions issued per FU type, per thread (Count)
system.cpu.statIssuedInstType_0::FloatMult            0      0.00%     43.81% # Number of instructions issued per FU type, per thread (Count)
system.cpu.statIssuedInstType_0::FloatMultAcc            0      0.00%     43.81% # Number of instructions issued per FU type, per thread (Count)
system.cpu.statIssuedInstType_0::FloatDiv            0      0.00%     43.81% # Number of instructions issued per FU type, per thread (Count)
system.cpu.statIssuedInstType_0::FloatMisc            0      0.00%     43.81% # Number of instructions issued per FU type, per thread (Count)
system.cpu.statIssuedInstType_0::FloatSqrt            0      0.00%     43.81% # Number of instructions issued per FU type, per thread (Count)
system.cpu.statIssuedInstType_0::SimdAdd           16      0.00%     43.81% # Number of instructions issued per FU type, per thread (Count)
system.cpu.statIssuedInstType_0::SimdAddAcc            0      0.00%     43.81% # Number of instructions issued per FU type, per thread (Count)
system.cpu.statIssuedInstType_0::SimdAlu          151      0.00%     43.81% # Number of instructions issued per FU type, per thread (Count)
system.cpu.statIssuedInstType_0::SimdCmp            0      0.00%     43.81% # Number of instructions issued per FU type, per thread (Count)
system.cpu.statIssuedInstType_0::SimdCvt          239      0.00%     43.81% # Number of instructions issued per FU type, per thread (Count)
system.cpu.statIssuedInstType_0::SimdMisc          422      0.00%     43.81% # Number of instructions issued per FU type, per thread (Count)
system.cpu.statIssuedInstType_0::SimdMult            0      0.00%     43.81% # Number of instructions issued per FU type, per thread (Count)
system.cpu.statIssuedInstType_0::SimdMultAcc            0      0.00%     43.81% # Number of instructions issued per FU type, per thread (Count)
system.cpu.statIssuedInstType_0::SimdShift           45      0.00%     43.81% # Number of instructions issued per FU type, per thread (Count)
system.cpu.statIssuedInstType_0::SimdShiftAcc            0      0.00%     43.81% # Number of instructions issued per FU type, per thread (Count)
system.cpu.statIssuedInstType_0::SimdDiv            0      0.00%     43.81% # Number of instructions issued per FU type, per thread (Count)
system.cpu.statIssuedInstType_0::SimdSqrt            0      0.00%     43.81% # Number of instructions issued per FU type, per thread (Count)
system.cpu.statIssuedInstType_0::SimdFloatAdd            0      0.00%     43.81% # Number of instructions issued per FU type, per thread (Count)
system.cpu.statIssuedInstType_0::SimdFloatAlu            0      0.00%     43.81% # Number of instructions issued per FU type, per thread (Count)
system.cpu.statIssuedInstType_0::SimdFloatCmp            0      0.00%     43.81% # Number of instructions issued per FU type, per thread (Count)
system.cpu.statIssuedInstType_0::SimdFloatCvt            0      0.00%     43.81% # Number of instructions issued per FU type, per thread (Count)
system.cpu.statIssuedInstType_0::SimdFloatDiv            0      0.00%     43.81% # Number of instructions issued per FU type, per thread (Count)
system.cpu.statIssuedInstType_0::SimdFloatMisc            0      0.00%     43.81% # Number of instructions issued per FU type, per thread (Count)
system.cpu.statIssuedInstType_0::SimdFloatMult            0      0.00%     43.81% # Number of instructions issued per FU type, per thread (Count)
system.cpu.statIssuedInstType_0::SimdFloatMultAcc            0      0.00%     43.81% # Number of instructions issued per FU type, per thread (Count)
system.cpu.statIssuedInstType_0::SimdFloatSqrt            0      0.00%     43.81% # Number of instructions issued per FU type, per thread (Count)
system.cpu.statIssuedInstType_0::SimdReduceAdd            0      0.00%     43.81% # Number of instructions issued per FU type, per thread (Count)
system.cpu.statIssuedInstType_0::SimdReduceAlu            0      0.00%     43.81% # Number of instructions issued per FU type, per thread (Count)
system.cpu.statIssuedInstType_0::SimdReduceCmp            0      0.00%     43.81% # Number of instructions issued per FU type, per thread (Count)
system.cpu.statIssuedInstType_0::SimdFloatReduceAdd            0      0.00%     43.81% # Number of instructions issued per FU type, per thread (Count)
system.cpu.statIssuedInstType_0::SimdFloatReduceCmp            0      0.00%     43.81% # Number of instructions issued per FU type, per thread (Count)
system.cpu.statIssuedInstType_0::SimdAes            0      0.00%     43.81% # Number of instructions issued per FU type, per thread (Count)
system.cpu.statIssuedInstType_0::SimdAesMix            0      0.00%     43.81% # Number of instructions issued per FU type, per thread (Count)
system.cpu.statIssuedInstType_0::SimdSha1Hash            0      0.00%     43.81% # Number of instructions issued per FU type, per thread (Count)
system.cpu.statIssuedInstType_0::SimdSha1Hash2            0      0.00%     43.81% # Number of instructions issued per FU type, per thread (Count)
system.cpu.statIssuedInstType_0::SimdSha256Hash            0      0.00%     43.81% # Number of instructions issued per FU type, per thread (Count)
system.cpu.statIssuedInstType_0::SimdSha256Hash2            0      0.00%     43.81% # Number of instructions issued per FU type, per thread (Count)
system.cpu.statIssuedInstType_0::SimdShaSigma2            0      0.00%     43.81% # Number of instructions issued per FU type, per thread (Count)
system.cpu.statIssuedInstType_0::SimdShaSigma3            0      0.00%     43.81% # Number of instructions issued per FU type, per thread (Count)
system.cpu.statIssuedInstType_0::SimdPredAlu            0      0.00%     43.81% # Number of instructions issued per FU type, per thread (Count)
system.cpu.statIssuedInstType_0::MemRead        80306      0.38%     44.19% # Number of instructions issued per FU type, per thread (Count)
system.cpu.statIssuedInstType_0::MemWrite        25729      0.12%     44.31% # Number of instructions issued per FU type, per thread (Count)
system.cpu.statIssuedInstType_0::FloatMemRead          435      0.00%     44.31% # Number of instructions issued per FU type, per thread (Count)
system.cpu.statIssuedInstType_0::FloatMemWrite     11908081     55.69%    100.00% # Number of instructions issued per FU type, per thread (Count)
system.cpu.statIssuedInstType_0::IprAccess            0      0.00%    100.00% # Number of instructions issued per FU type, per thread (Count)
system.cpu.statIssuedInstType_0::InstPrefetch            0      0.00%    100.00% # Number of instructions issued per FU type, per thread (Count)
system.cpu.statIssuedInstType_0::total       21381836                       # Number of instructions issued per FU type, per thread (Count)
system.cpu.issueRate                         0.112359                       # Inst issue rate ((Count/Cycle))
system.cpu.fuBusy                              116950                       # FU busy when requested (Count)
system.cpu.fuBusyRate                        0.005470                       # FU busy rate (busy events/executed inst) ((Count/Count))
system.cpu.intInstQueueReads                209176692                       # Number of integer instruction queue reads (Count)
system.cpu.intInstQueueWrites                10354811                       # Number of integer instruction queue writes (Count)
system.cpu.intInstQueueWakeupAccesses         9449820                       # Number of integer instruction queue wakeup accesses (Count)
system.cpu.fpInstQueueReads                  23929010                       # Number of floating instruction queue reads (Count)
system.cpu.fpInstQueueWrites                 12610951                       # Number of floating instruction queue writes (Count)
system.cpu.fpInstQueueWakeupAccesses         11252977                       # Number of floating instruction queue wakeup accesses (Count)
system.cpu.vecInstQueueReads                        0                       # Number of vector instruction queue reads (Count)
system.cpu.vecInstQueueWrites                       0                       # Number of vector instruction queue writes (Count)
system.cpu.vecInstQueueWakeupAccesses               0                       # Number of vector instruction queue wakeup accesses (Count)
system.cpu.intAluAccesses                     9477509                       # Number of integer alu accesses (Count)
system.cpu.fpAluAccesses                     12019253                       # Number of floating point alu accesses (Count)
system.cpu.vecAluAccesses                           0                       # Number of vector alu accesses (Count)
system.cpu.numInsts                          21370856                       # Number of executed instructions (Count)
system.cpu.numLoadInsts                         78452                       # Number of load instructions executed (Count)
system.cpu.numSquashedInsts                     10979                       # Number of squashed instructions skipped in execute (Count)
system.cpu.numSwp                                   0                       # Number of swp insts executed (Count)
system.cpu.numNop                                   0                       # Number of nop insts executed (Count)
system.cpu.numRefs                           12011578                       # Number of memory reference insts executed (Count)
system.cpu.numBranches                        1544437                       # Number of branches executed (Count)
system.cpu.numStoreInsts                     11933126                       # Number of stores executed (Count)
system.cpu.numRate                           0.112301                       # Inst execution rate ((Count/Cycle))
system.cpu.timesIdled                             878                       # Number of times that the entire CPU went into an idle state and unscheduled itself (Count)
system.cpu.idleCycles                           75676                       # Total number of cycles that the CPU has spent unscheduled due to idling (Cycle)
system.cpu.committedInsts                    10000000                       # Number of Instructions Simulated (Count)
system.cpu.committedOps                      19972351                       # Number of Ops (including micro ops) Simulated (Count)
system.cpu.cpi                              19.029969                       # CPI: Cycles Per Instruction ((Cycle/Count))
system.cpu.totalCpi                         19.029969                       # CPI: Total CPI of All Threads ((Cycle/Count))
system.cpu.ipc                               0.052549                       # IPC: Instructions Per Cycle ((Count/Cycle))
system.cpu.totalIpc                          0.052549                       # IPC: Total IPC of All Threads ((Count/Cycle))
system.cpu.intRegfileReads                   21552882                       # Number of integer regfile reads (Count)
system.cpu.intRegfileWrites                   6351345                       # Number of integer regfile writes (Count)
system.cpu.fpRegfileReads                    11910622                       # Number of floating regfile reads (Count)
system.cpu.fpRegfileWrites                       1294                       # Number of floating regfile writes (Count)
system.cpu.ccRegfileReads                     7732528                       # number of cc regfile reads (Count)
system.cpu.ccRegfileWrites                    6145860                       # number of cc regfile writes (Count)
system.cpu.miscRegfileReads                  15113899                       # number of misc regfile reads (Count)
system.cpu.miscRegfileWrites                       63                       # number of misc regfile writes (Count)
system.cpu.MemDepUnit__0.insertedLoads          89280                       # Number of loads inserted to the mem dependence unit. (Count)
system.cpu.MemDepUnit__0.insertedStores      11936527                       # Number of stores inserted to the mem dependence unit. (Count)
system.cpu.MemDepUnit__0.conflictingLoads         1814                       # Number of conflicting loads. (Count)
system.cpu.MemDepUnit__0.conflictingStores         3556                       # Number of conflicting stores. (Count)
system.cpu.MemDepUnit__1.insertedLoads              0                       # Number of loads inserted to the mem dependence unit. (Count)
system.cpu.MemDepUnit__1.insertedStores             0                       # Number of stores inserted to the mem dependence unit. (Count)
system.cpu.MemDepUnit__1.conflictingLoads            0                       # Number of conflicting loads. (Count)
system.cpu.MemDepUnit__1.conflictingStores            0                       # Number of conflicting stores. (Count)
system.cpu.MemDepUnit__2.insertedLoads              0                       # Number of loads inserted to the mem dependence unit. (Count)
system.cpu.MemDepUnit__2.insertedStores             0                       # Number of stores inserted to the mem dependence unit. (Count)
system.cpu.MemDepUnit__2.conflictingLoads            0                       # Number of conflicting loads. (Count)
system.cpu.MemDepUnit__2.conflictingStores            0                       # Number of conflicting stores. (Count)
system.cpu.MemDepUnit__3.insertedLoads              0                       # Number of loads inserted to the mem dependence unit. (Count)
system.cpu.MemDepUnit__3.insertedStores             0                       # Number of stores inserted to the mem dependence unit. (Count)
system.cpu.MemDepUnit__3.conflictingLoads            0                       # Number of conflicting loads. (Count)
system.cpu.MemDepUnit__3.conflictingStores            0                       # Number of conflicting stores. (Count)
system.cpu.branchPred.lookups                 1646501                       # Number of BP lookups (Count)
system.cpu.branchPred.condPredicted           1634313                       # Number of conditional branches predicted (Count)
system.cpu.branchPred.condIncorrect              6169                       # Number of conditional branches incorrect (Count)
system.cpu.branchPred.BTBLookups              1603022                       # Number of BTB lookups (Count)
system.cpu.branchPred.BTBHits                 1600631                       # Number of BTB hits (Count)
system.cpu.branchPred.BTBHitRatio            0.998508                       # BTB Hit Ratio (Ratio)
system.cpu.branchPred.RASUsed                    2935                       # Number of times the RAS was used to get a target. (Count)
system.cpu.branchPred.RASIncorrect                  5                       # Number of incorrect RAS predictions. (Count)
system.cpu.branchPred.indirectLookups            1207                       # Number of indirect predictor lookups. (Count)
system.cpu.branchPred.indirectHits                267                       # Number of indirect target hits. (Count)
system.cpu.branchPred.indirectMisses              940                       # Number of indirect misses. (Count)
system.cpu.branchPred.indirectMispredicted          261                       # Number of mispredicted indirect branches. (Count)
system.cpu.commit.commitSquashedInsts         1340854                       # The number of squashed insts skipped by commit (Count)
system.cpu.commit.commitNonSpecStalls              63                       # The number of times commit has been forced to stall to communicate backwards (Count)
system.cpu.commit.branchMispredicts              5891                       # The number of times a branch was mispredicted (Count)
system.cpu.commit.numCommittedDist::samples    190031574                       # Number of insts commited each cycle (Count)
system.cpu.commit.numCommittedDist::mean     0.105100                       # Number of insts commited each cycle (Count)
system.cpu.commit.numCommittedDist::stdev     0.433605                       # Number of insts commited each cycle (Count)
system.cpu.commit.numCommittedDist::underflows            0      0.00%      0.00% # Number of insts commited each cycle (Count)
system.cpu.commit.numCommittedDist::0       174999254     92.09%     92.09% # Number of insts commited each cycle (Count)
system.cpu.commit.numCommittedDist::1        12333900      6.49%     98.58% # Number of insts commited each cycle (Count)
system.cpu.commit.numCommittedDist::2         1106758      0.58%     99.16% # Number of insts commited each cycle (Count)
system.cpu.commit.numCommittedDist::3         1402347      0.74%     99.90% # Number of insts commited each cycle (Count)
system.cpu.commit.numCommittedDist::4           49445      0.03%     99.93% # Number of insts commited each cycle (Count)
system.cpu.commit.numCommittedDist::5           29573      0.02%     99.94% # Number of insts commited each cycle (Count)
system.cpu.commit.numCommittedDist::6            3952      0.00%     99.94% # Number of insts commited each cycle (Count)
system.cpu.commit.numCommittedDist::7            2223      0.00%     99.95% # Number of insts commited each cycle (Count)
system.cpu.commit.numCommittedDist::8          104122      0.05%    100.00% # Number of insts commited each cycle (Count)
system.cpu.commit.numCommittedDist::overflows            0      0.00%    100.00% # Number of insts commited each cycle (Count)
system.cpu.commit.numCommittedDist::min_value            0                       # Number of insts commited each cycle (Count)
system.cpu.commit.numCommittedDist::max_value            8                       # Number of insts commited each cycle (Count)
system.cpu.commit.numCommittedDist::total    190031574                       # Number of insts commited each cycle (Count)
system.cpu.commit.instsCommitted             10000000                       # Number of instructions committed (Count)
system.cpu.commit.opsCommitted               19972351                       # Number of ops (including micro ops) committed (Count)
system.cpu.commit.memRefs                    11278664                       # Number of memory references committed (Count)
system.cpu.commit.loads                         51398                       # Number of loads committed (Count)
system.cpu.commit.amos                              0                       # Number of atomic instructions committed (Count)
system.cpu.commit.membars                           0                       # Number of memory barriers committed (Count)
system.cpu.commit.branches                    1444581                       # Number of branches committed (Count)
system.cpu.commit.vectorInstructions                0                       # Number of committed Vector instructions. (Count)
system.cpu.commit.floating                   11208860                       # Number of committed floating point instructions. (Count)
system.cpu.commit.integer                    19967938                       # Number of committed integer instructions. (Count)
system.cpu.commit.functionCalls                  1457                       # Number of function calls committed. (Count)
system.cpu.commit.committedInstType_0::No_OpClass          776      0.00%      0.00% # Class of committed instruction (Count)
system.cpu.commit.committedInstType_0::IntAlu      8690175     43.51%     43.51% # Class of committed instruction (Count)
system.cpu.commit.committedInstType_0::IntMult           67      0.00%     43.52% # Class of committed instruction (Count)
system.cpu.commit.committedInstType_0::IntDiv         1740      0.01%     43.52% # Class of committed instruction (Count)
system.cpu.commit.committedInstType_0::FloatAdd           89      0.00%     43.52% # Class of committed instruction (Count)
system.cpu.commit.committedInstType_0::FloatCmp            0      0.00%     43.52% # Class of committed instruction (Count)
system.cpu.commit.committedInstType_0::FloatCvt          112      0.00%     43.52% # Class of committed instruction (Count)
system.cpu.commit.committedInstType_0::FloatMult            0      0.00%     43.52% # Class of committed instruction (Count)
system.cpu.commit.committedInstType_0::FloatMultAcc            0      0.00%     43.52% # Class of committed instruction (Count)
system.cpu.commit.committedInstType_0::FloatDiv            0      0.00%     43.52% # Class of committed instruction (Count)
system.cpu.commit.committedInstType_0::FloatMisc            0      0.00%     43.52% # Class of committed instruction (Count)
system.cpu.commit.committedInstType_0::FloatSqrt            0      0.00%     43.52% # Class of committed instruction (Count)
system.cpu.commit.committedInstType_0::SimdAdd           12      0.00%     43.53% # Class of committed instruction (Count)
system.cpu.commit.committedInstType_0::SimdAddAcc            0      0.00%     43.53% # Class of committed instruction (Count)
system.cpu.commit.committedInstType_0::SimdAlu          109      0.00%     43.53% # Class of committed instruction (Count)
system.cpu.commit.committedInstType_0::SimdCmp            0      0.00%     43.53% # Class of committed instruction (Count)
system.cpu.commit.committedInstType_0::SimdCvt          196      0.00%     43.53% # Class of committed instruction (Count)
system.cpu.commit.committedInstType_0::SimdMisc          401      0.00%     43.53% # Class of committed instruction (Count)
system.cpu.commit.committedInstType_0::SimdMult            0      0.00%     43.53% # Class of committed instruction (Count)
system.cpu.commit.committedInstType_0::SimdMultAcc            0      0.00%     43.53% # Class of committed instruction (Count)
system.cpu.commit.committedInstType_0::SimdShift           10      0.00%     43.53% # Class of committed instruction (Count)
system.cpu.commit.committedInstType_0::SimdShiftAcc            0      0.00%     43.53% # Class of committed instruction (Count)
system.cpu.commit.committedInstType_0::SimdDiv            0      0.00%     43.53% # Class of committed instruction (Count)
system.cpu.commit.committedInstType_0::SimdSqrt            0      0.00%     43.53% # Class of committed instruction (Count)
system.cpu.commit.committedInstType_0::SimdFloatAdd            0      0.00%     43.53% # Class of committed instruction (Count)
system.cpu.commit.committedInstType_0::SimdFloatAlu            0      0.00%     43.53% # Class of committed instruction (Count)
system.cpu.commit.committedInstType_0::SimdFloatCmp            0      0.00%     43.53% # Class of committed instruction (Count)
system.cpu.commit.committedInstType_0::SimdFloatCvt            0      0.00%     43.53% # Class of committed instruction (Count)
system.cpu.commit.committedInstType_0::SimdFloatDiv            0      0.00%     43.53% # Class of committed instruction (Count)
system.cpu.commit.committedInstType_0::SimdFloatMisc            0      0.00%     43.53% # Class of committed instruction (Count)
system.cpu.commit.committedInstType_0::SimdFloatMult            0      0.00%     43.53% # Class of committed instruction (Count)
system.cpu.commit.committedInstType_0::SimdFloatMultAcc            0      0.00%     43.53% # Class of committed instruction (Count)
system.cpu.commit.committedInstType_0::SimdFloatSqrt            0      0.00%     43.53% # Class of committed instruction (Count)
system.cpu.commit.committedInstType_0::SimdReduceAdd            0      0.00%     43.53% # Class of committed instruction (Count)
system.cpu.commit.committedInstType_0::SimdReduceAlu            0      0.00%     43.53% # Class of committed instruction (Count)
system.cpu.commit.committedInstType_0::SimdReduceCmp            0      0.00%     43.53% # Class of committed instruction (Count)
system.cpu.commit.committedInstType_0::SimdFloatReduceAdd            0      0.00%     43.53% # Class of committed instruction (Count)
system.cpu.commit.committedInstType_0::SimdFloatReduceCmp            0      0.00%     43.53% # Class of committed instruction (Count)
system.cpu.commit.committedInstType_0::SimdAes            0      0.00%     43.53% # Class of committed instruction (Count)
system.cpu.commit.committedInstType_0::SimdAesMix            0      0.00%     43.53% # Class of committed instruction (Count)
system.cpu.commit.committedInstType_0::SimdSha1Hash            0      0.00%     43.53% # Class of committed instruction (Count)
system.cpu.commit.committedInstType_0::SimdSha1Hash2            0      0.00%     43.53% # Class of committed instruction (Count)
system.cpu.commit.committedInstType_0::SimdSha256Hash            0      0.00%     43.53% # Class of committed instruction (Count)
system.cpu.commit.committedInstType_0::SimdSha256Hash2            0      0.00%     43.53% # Class of committed instruction (Count)
system.cpu.commit.committedInstType_0::SimdShaSigma2            0      0.00%     43.53% # Class of committed instruction (Count)
system.cpu.commit.committedInstType_0::SimdShaSigma3            0      0.00%     43.53% # Class of committed instruction (Count)
system.cpu.commit.committedInstType_0::SimdPredAlu            0      0.00%     43.53% # Class of committed instruction (Count)
system.cpu.commit.committedInstType_0::MemRead        51053      0.26%     43.78% # Class of committed instruction (Count)
system.cpu.commit.committedInstType_0::MemWrite        19787      0.10%     43.88% # Class of committed instruction (Count)
system.cpu.commit.committedInstType_0::FloatMemRead          345      0.00%     43.89% # Class of committed instruction (Count)
system.cpu.commit.committedInstType_0::FloatMemWrite     11207479     56.11%    100.00% # Class of committed instruction (Count)
system.cpu.commit.committedInstType_0::IprAccess            0      0.00%    100.00% # Class of committed instruction (Count)
system.cpu.commit.committedInstType_0::InstPrefetch            0      0.00%    100.00% # Class of committed instruction (Count)
system.cpu.commit.committedInstType_0::total     19972351                       # Class of committed instruction (Count)
system.cpu.commit.commitEligibleSamples        104122                       # number cycles where commit BW limit reached (Cycle)
system.cpu.dcache.demandHits::cpu.data        9885398                       # number of demand (read+write) hits (Count)
system.cpu.dcache.demandHits::total           9885398                       # number of demand (read+write) hits (Count)
system.cpu.dcache.overallHits::cpu.data       9885398                       # number of overall hits (Count)
system.cpu.dcache.overallHits::total          9885398                       # number of overall hits (Count)
system.cpu.dcache.demandMisses::cpu.data      1413320                       # number of demand (read+write) misses (Count)
system.cpu.dcache.demandMisses::total         1413320                       # number of demand (read+write) misses (Count)
system.cpu.dcache.overallMisses::cpu.data      1413320                       # number of overall misses (Count)
system.cpu.dcache.overallMisses::total        1413320                       # number of overall misses (Count)
system.cpu.dcache.demandMissLatency::cpu.data  85416007988                       # number of demand (read+write) miss ticks (Tick)
system.cpu.dcache.demandMissLatency::total  85416007988                       # number of demand (read+write) miss ticks (Tick)
system.cpu.dcache.overallMissLatency::cpu.data  85416007988                       # number of overall miss ticks (Tick)
system.cpu.dcache.overallMissLatency::total  85416007988                       # number of overall miss ticks (Tick)
system.cpu.dcache.demandAccesses::cpu.data     11298718                       # number of demand (read+write) accesses (Count)
system.cpu.dcache.demandAccesses::total      11298718                       # number of demand (read+write) accesses (Count)
system.cpu.dcache.overallAccesses::cpu.data     11298718                       # number of overall (read+write) accesses (Count)
system.cpu.dcache.overallAccesses::total     11298718                       # number of overall (read+write) accesses (Count)
system.cpu.dcache.demandMissRate::cpu.data     0.125087                       # miss rate for demand accesses (Ratio)
system.cpu.dcache.demandMissRate::total      0.125087                       # miss rate for demand accesses (Ratio)
system.cpu.dcache.overallMissRate::cpu.data     0.125087                       # miss rate for overall accesses (Ratio)
system.cpu.dcache.overallMissRate::total     0.125087                       # miss rate for overall accesses (Ratio)
system.cpu.dcache.demandAvgMissLatency::cpu.data 60436.424863                       # average overall miss latency in ticks ((Tick/Count))
system.cpu.dcache.demandAvgMissLatency::total 60436.424863                       # average overall miss latency in ticks ((Tick/Count))
system.cpu.dcache.overallAvgMissLatency::cpu.data 60436.424863                       # average overall miss latency ((Tick/Count))
system.cpu.dcache.overallAvgMissLatency::total 60436.424863                       # average overall miss latency ((Tick/Count))
system.cpu.dcache.blockedCycles::no_mshrs        12397                       # number of cycles access was blocked (Cycle)
system.cpu.dcache.blockedCycles::no_targets            0                       # number of cycles access was blocked (Cycle)
system.cpu.dcache.blockedCauses::no_mshrs          294                       # number of times access was blocked (Count)
system.cpu.dcache.blockedCauses::no_targets            0                       # number of times access was blocked (Count)
system.cpu.dcache.avgBlocked::no_mshrs      42.166667                       # average number of cycles each access was blocked ((Cycle/Count))
system.cpu.dcache.avgBlocked::no_targets          nan                       # average number of cycles each access was blocked ((Cycle/Count))
system.cpu.dcache.writebacks::writebacks      1400519                       # number of writebacks (Count)
system.cpu.dcache.writebacks::total           1400519                       # number of writebacks (Count)
system.cpu.dcache.demandMshrHits::cpu.data         9425                       # number of demand (read+write) MSHR hits (Count)
system.cpu.dcache.demandMshrHits::total          9425                       # number of demand (read+write) MSHR hits (Count)
system.cpu.dcache.overallMshrHits::cpu.data         9425                       # number of overall MSHR hits (Count)
system.cpu.dcache.overallMshrHits::total         9425                       # number of overall MSHR hits (Count)
system.cpu.dcache.demandMshrMisses::cpu.data      1403895                       # number of demand (read+write) MSHR misses (Count)
system.cpu.dcache.demandMshrMisses::total      1403895                       # number of demand (read+write) MSHR misses (Count)
system.cpu.dcache.overallMshrMisses::cpu.data      1403895                       # number of overall MSHR misses (Count)
system.cpu.dcache.overallMshrMisses::total      1403895                       # number of overall MSHR misses (Count)
system.cpu.dcache.demandMshrMissLatency::cpu.data  83566540988                       # number of demand (read+write) MSHR miss ticks (Tick)
system.cpu.dcache.demandMshrMissLatency::total  83566540988                       # number of demand (read+write) MSHR miss ticks (Tick)
system.cpu.dcache.overallMshrMissLatency::cpu.data  83566540988                       # number of overall MSHR miss ticks (Tick)
system.cpu.dcache.overallMshrMissLatency::total  83566540988                       # number of overall MSHR miss ticks (Tick)
system.cpu.dcache.demandMshrMissRate::cpu.data     0.124253                       # mshr miss ratio for demand accesses (Ratio)
system.cpu.dcache.demandMshrMissRate::total     0.124253                       # mshr miss ratio for demand accesses (Ratio)
system.cpu.dcache.overallMshrMissRate::cpu.data     0.124253                       # mshr miss ratio for overall accesses (Ratio)
system.cpu.dcache.overallMshrMissRate::total     0.124253                       # mshr miss ratio for overall accesses (Ratio)
system.cpu.dcache.demandAvgMshrMissLatency::cpu.data 59524.779979                       # average overall mshr miss latency ((Tick/Count))
system.cpu.dcache.demandAvgMshrMissLatency::total 59524.779979                       # average overall mshr miss latency ((Tick/Count))
system.cpu.dcache.overallAvgMshrMissLatency::cpu.data 59524.779979                       # average overall mshr miss latency ((Tick/Count))
system.cpu.dcache.overallAvgMshrMissLatency::total 59524.779979                       # average overall mshr miss latency ((Tick/Count))
system.cpu.dcache.replacements                1402870                       # number of replacements (Count)
system.cpu.dcache.ReadReq.hits::cpu.data        59596                       # number of ReadReq hits (Count)
system.cpu.dcache.ReadReq.hits::total           59596                       # number of ReadReq hits (Count)
system.cpu.dcache.ReadReq.misses::cpu.data        11877                       # number of ReadReq misses (Count)
system.cpu.dcache.ReadReq.misses::total         11877                       # number of ReadReq misses (Count)
system.cpu.dcache.ReadReq.missLatency::cpu.data    596998500                       # number of ReadReq miss ticks (Tick)
system.cpu.dcache.ReadReq.missLatency::total    596998500                       # number of ReadReq miss ticks (Tick)
system.cpu.dcache.ReadReq.accesses::cpu.data        71473                       # number of ReadReq accesses(hits+misses) (Count)
system.cpu.dcache.ReadReq.accesses::total        71473                       # number of ReadReq accesses(hits+misses) (Count)
system.cpu.dcache.ReadReq.missRate::cpu.data     0.166175                       # miss rate for ReadReq accesses (Ratio)
system.cpu.dcache.ReadReq.missRate::total     0.166175                       # miss rate for ReadReq accesses (Ratio)
system.cpu.dcache.ReadReq.avgMissLatency::cpu.data 50265.092195                       # average ReadReq miss latency ((Tick/Count))
system.cpu.dcache.ReadReq.avgMissLatency::total 50265.092195                       # average ReadReq miss latency ((Tick/Count))
system.cpu.dcache.ReadReq.mshrHits::cpu.data         9418                       # number of ReadReq MSHR hits (Count)
system.cpu.dcache.ReadReq.mshrHits::total         9418                       # number of ReadReq MSHR hits (Count)
system.cpu.dcache.ReadReq.mshrMisses::cpu.data         2459                       # number of ReadReq MSHR misses (Count)
system.cpu.dcache.ReadReq.mshrMisses::total         2459                       # number of ReadReq MSHR misses (Count)
system.cpu.dcache.ReadReq.mshrMissLatency::cpu.data    149192500                       # number of ReadReq MSHR miss ticks (Tick)
system.cpu.dcache.ReadReq.mshrMissLatency::total    149192500                       # number of ReadReq MSHR miss ticks (Tick)
system.cpu.dcache.ReadReq.mshrMissRate::cpu.data     0.034405                       # mshr miss rate for ReadReq accesses (Ratio)
system.cpu.dcache.ReadReq.mshrMissRate::total     0.034405                       # mshr miss rate for ReadReq accesses (Ratio)
system.cpu.dcache.ReadReq.avgMshrMissLatency::cpu.data 60672.021147                       # average ReadReq mshr miss latency ((Tick/Count))
system.cpu.dcache.ReadReq.avgMshrMissLatency::total 60672.021147                       # average ReadReq mshr miss latency ((Tick/Count))
system.cpu.dcache.WriteReq.hits::cpu.data      9825802                       # number of WriteReq hits (Count)
system.cpu.dcache.WriteReq.hits::total        9825802                       # number of WriteReq hits (Count)
system.cpu.dcache.WriteReq.misses::cpu.data      1401443                       # number of WriteReq misses (Count)
system.cpu.dcache.WriteReq.misses::total      1401443                       # number of WriteReq misses (Count)
system.cpu.dcache.WriteReq.missLatency::cpu.data  84819009488                       # number of WriteReq miss ticks (Tick)
system.cpu.dcache.WriteReq.missLatency::total  84819009488                       # number of WriteReq miss ticks (Tick)
system.cpu.dcache.WriteReq.accesses::cpu.data     11227245                       # number of WriteReq accesses(hits+misses) (Count)
system.cpu.dcache.WriteReq.accesses::total     11227245                       # number of WriteReq accesses(hits+misses) (Count)
system.cpu.dcache.WriteReq.missRate::cpu.data     0.124825                       # miss rate for WriteReq accesses (Ratio)
system.cpu.dcache.WriteReq.missRate::total     0.124825                       # miss rate for WriteReq accesses (Ratio)
system.cpu.dcache.WriteReq.avgMissLatency::cpu.data 60522.625243                       # average WriteReq miss latency ((Tick/Count))
system.cpu.dcache.WriteReq.avgMissLatency::total 60522.625243                       # average WriteReq miss latency ((Tick/Count))
system.cpu.dcache.WriteReq.mshrHits::cpu.data            7                       # number of WriteReq MSHR hits (Count)
system.cpu.dcache.WriteReq.mshrHits::total            7                       # number of WriteReq MSHR hits (Count)
system.cpu.dcache.WriteReq.mshrMisses::cpu.data      1401436                       # number of WriteReq MSHR misses (Count)
system.cpu.dcache.WriteReq.mshrMisses::total      1401436                       # number of WriteReq MSHR misses (Count)
system.cpu.dcache.WriteReq.mshrMissLatency::cpu.data  83417348488                       # number of WriteReq MSHR miss ticks (Tick)
system.cpu.dcache.WriteReq.mshrMissLatency::total  83417348488                       # number of WriteReq MSHR miss ticks (Tick)
system.cpu.dcache.WriteReq.mshrMissRate::cpu.data     0.124825                       # mshr miss rate for WriteReq accesses (Ratio)
system.cpu.dcache.WriteReq.mshrMissRate::total     0.124825                       # mshr miss rate for WriteReq accesses (Ratio)
system.cpu.dcache.WriteReq.avgMshrMissLatency::cpu.data 59522.766996                       # average WriteReq mshr miss latency ((Tick/Count))
system.cpu.dcache.WriteReq.avgMshrMissLatency::total 59522.766996                       # average WriteReq mshr miss latency ((Tick/Count))
system.cpu.dcache.power_state.pwrStateResidencyTicks::UNDEFINED  95149844500                       # Cumulative time (in ticks) in various power states (Tick)
system.cpu.dcache.tags.tagsInUse          1023.442445                       # Average ticks per tags in use ((Tick/Count))
system.cpu.dcache.tags.totalRefs             11289292                       # Total number of references to valid blocks. (Count)
system.cpu.dcache.tags.sampledRefs            1403894                       # Sample count of references to valid blocks. (Count)
system.cpu.dcache.tags.avgRefs               8.041413                       # Average number of references to valid blocks. ((Count/Count))
system.cpu.dcache.tags.warmupTick              148000                       # The tick when the warmup percentage was hit. (Tick)
system.cpu.dcache.tags.occupancies::cpu.data  1023.442445                       # Average occupied blocks per tick, per requestor ((Count/Tick))
system.cpu.dcache.tags.avgOccs::cpu.data     0.999456                       # Average percentage of cache occupancy ((Ratio/Tick))
system.cpu.dcache.tags.avgOccs::total        0.999456                       # Average percentage of cache occupancy ((Ratio/Tick))
system.cpu.dcache.tags.occupanciesTaskId::1024         1024                       # Occupied blocks per task id (Count)
system.cpu.dcache.tags.ageTaskId_1024::0          149                       # Occupied blocks per task id, per block age (Count)
system.cpu.dcache.tags.ageTaskId_1024::1          875                       # Occupied blocks per task id, per block age (Count)
system.cpu.dcache.tags.ratioOccsTaskId::1024            1                       # Ratio of occupied blocks and all blocks, per task id (Ratio)
system.cpu.dcache.tags.tagAccesses           24001330                       # Number of tag accesses (Count)
system.cpu.dcache.tags.dataAccesses          24001330                       # Number of data accesses (Count)
system.cpu.dcache.tags.power_state.pwrStateResidencyTicks::UNDEFINED  95149844500                       # Cumulative time (in ticks) in various power states (Tick)
system.cpu.decode.idleCycles                   932497                       # Number of cycles decode is idle (Cycle)
system.cpu.decode.blockedCycles             186531987                       # Number of cycles decode is blocked (Cycle)
system.cpu.decode.runCycles                    242996                       # Number of cycles decode is running (Cycle)
system.cpu.decode.unblockCycles               2488482                       # Number of cycles decode is unblocking (Cycle)
system.cpu.decode.squashCycles                  28052                       # Number of cycles decode is squashing (Cycle)
system.cpu.decode.branchResolved              1531576                       # Number of times decode resolved a branch (Count)
system.cpu.decode.branchMispred                   646                       # Number of times decode detected a branch misprediction (Count)
system.cpu.decode.decodedInsts               21663888                       # Number of instructions handled by decode (Count)
system.cpu.decode.squashedInsts                  3113                       # Number of squashed instructions handled by decode (Count)
system.cpu.dtb_walker_cache.blockedCycles::no_mshrs            0                       # number of cycles access was blocked (Cycle)
system.cpu.dtb_walker_cache.blockedCycles::no_targets            0                       # number of cycles access was blocked (Cycle)
system.cpu.dtb_walker_cache.blockedCauses::no_mshrs            0                       # number of times access was blocked (Count)
system.cpu.dtb_walker_cache.blockedCauses::no_targets            0                       # number of times access was blocked (Count)
system.cpu.dtb_walker_cache.avgBlocked::no_mshrs          nan                       # average number of cycles each access was blocked ((Cycle/Count))
system.cpu.dtb_walker_cache.avgBlocked::no_targets          nan                       # average number of cycles each access was blocked ((Cycle/Count))
system.cpu.dtb_walker_cache.replacements            0                       # number of replacements (Count)
system.cpu.dtb_walker_cache.power_state.pwrStateResidencyTicks::UNDEFINED  95149844500                       # Cumulative time (in ticks) in various power states (Tick)
system.cpu.dtb_walker_cache.tags.tagsInUse            0                       # Average ticks per tags in use ((Tick/Count))
system.cpu.dtb_walker_cache.tags.totalRefs            0                       # Total number of references to valid blocks. (Count)
system.cpu.dtb_walker_cache.tags.sampledRefs            0                       # Sample count of references to valid blocks. (Count)
system.cpu.dtb_walker_cache.tags.avgRefs          nan                       # Average number of references to valid blocks. ((Count/Count))
system.cpu.dtb_walker_cache.tags.warmupTick            0                       # The tick when the warmup percentage was hit. (Tick)
system.cpu.dtb_walker_cache.tags.tagAccesses            0                       # Number of tag accesses (Count)
system.cpu.dtb_walker_cache.tags.dataAccesses            0                       # Number of data accesses (Count)
system.cpu.dtb_walker_cache.tags.power_state.pwrStateResidencyTicks::UNDEFINED  95149844500                       # Cumulative time (in ticks) in various power states (Tick)
system.cpu.fetch.icacheStallCycles              88489                       # Number of cycles fetch is stalled on an Icache miss (Cycle)
system.cpu.fetch.insts                       11444593                       # Number of instructions fetch has processed (Count)
system.cpu.fetch.branches                     1646501                       # Number of branches that fetch encountered (Count)
system.cpu.fetch.predictedBranches            1603833                       # Number of branches that fetch has predicted taken (Count)
system.cpu.fetch.cycles                     190103815                       # Number of cycles fetch has run and was not squashing or blocked (Cycle)
system.cpu.fetch.squashCycles                   57366                       # Number of cycles fetch has spent squashing (Cycle)
system.cpu.fetch.miscStallCycles                  378                       # Number of cycles fetch has spent waiting on interrupts, or bad addresses, or out of MSHRs (Cycle)
system.cpu.fetch.pendingTrapStallCycles          2634                       # Number of stall cycles due to pending traps (Cycle)
system.cpu.fetch.icacheWaitRetryStallCycles           15                       # Number of stall cycles due to full MSHR (Cycle)
system.cpu.fetch.cacheLines                     47739                       # Number of cache lines fetched (Count)
system.cpu.fetch.icacheSquashes                  2012                       # Number of outstanding Icache misses that were squashed (Count)
system.cpu.fetch.nisnDist::samples          190224014                       # Number of instructions fetched each cycle (Total) (Count)
system.cpu.fetch.nisnDist::mean              0.119736                       # Number of instructions fetched each cycle (Total) (Count)
system.cpu.fetch.nisnDist::stdev             0.883619                       # Number of instructions fetched each cycle (Total) (Count)
system.cpu.fetch.nisnDist::underflows               0      0.00%      0.00% # Number of instructions fetched each cycle (Total) (Count)
system.cpu.fetch.nisnDist::0                186243291     97.91%     97.91% # Number of instructions fetched each cycle (Total) (Count)
system.cpu.fetch.nisnDist::1                    10923      0.01%     97.91% # Number of instructions fetched each cycle (Total) (Count)
system.cpu.fetch.nisnDist::2                   710398      0.37%     98.29% # Number of instructions fetched each cycle (Total) (Count)
system.cpu.fetch.nisnDist::3                     8553      0.00%     98.29% # Number of instructions fetched each cycle (Total) (Count)
system.cpu.fetch.nisnDist::4                   733758      0.39%     98.68% # Number of instructions fetched each cycle (Total) (Count)
system.cpu.fetch.nisnDist::5                     8424      0.00%     98.68% # Number of instructions fetched each cycle (Total) (Count)
system.cpu.fetch.nisnDist::6                   861807      0.45%     99.13% # Number of instructions fetched each cycle (Total) (Count)
system.cpu.fetch.nisnDist::7                     3575      0.00%     99.14% # Number of instructions fetched each cycle (Total) (Count)
system.cpu.fetch.nisnDist::8                  1643285      0.86%    100.00% # Number of instructions fetched each cycle (Total) (Count)
system.cpu.fetch.nisnDist::overflows                0      0.00%    100.00% # Number of instructions fetched each cycle (Total) (Count)
system.cpu.fetch.nisnDist::min_value                0                       # Number of instructions fetched each cycle (Total) (Count)
system.cpu.fetch.nisnDist::max_value                8                       # Number of instructions fetched each cycle (Total) (Count)
system.cpu.fetch.nisnDist::total            190224014                       # Number of instructions fetched each cycle (Total) (Count)
system.cpu.fetch.branchRate                  0.008652                       # Number of branch fetches per cycle (Ratio)
system.cpu.fetch.rate                        0.060140                       # Number of inst fetches per cycle ((Count/Cycle))
system.cpu.icache.demandHits::cpu.inst          45928                       # number of demand (read+write) hits (Count)
system.cpu.icache.demandHits::total             45928                       # number of demand (read+write) hits (Count)
system.cpu.icache.overallHits::cpu.inst         45928                       # number of overall hits (Count)
system.cpu.icache.overallHits::total            45928                       # number of overall hits (Count)
system.cpu.icache.demandMisses::cpu.inst         1811                       # number of demand (read+write) misses (Count)
system.cpu.icache.demandMisses::total            1811                       # number of demand (read+write) misses (Count)
system.cpu.icache.overallMisses::cpu.inst         1811                       # number of overall misses (Count)
system.cpu.icache.overallMisses::total           1811                       # number of overall misses (Count)
system.cpu.icache.demandMissLatency::cpu.inst    103067000                       # number of demand (read+write) miss ticks (Tick)
system.cpu.icache.demandMissLatency::total    103067000                       # number of demand (read+write) miss ticks (Tick)
system.cpu.icache.overallMissLatency::cpu.inst    103067000                       # number of overall miss ticks (Tick)
system.cpu.icache.overallMissLatency::total    103067000                       # number of overall miss ticks (Tick)
system.cpu.icache.demandAccesses::cpu.inst        47739                       # number of demand (read+write) accesses (Count)
system.cpu.icache.demandAccesses::total         47739                       # number of demand (read+write) accesses (Count)
system.cpu.icache.overallAccesses::cpu.inst        47739                       # number of overall (read+write) accesses (Count)
system.cpu.icache.overallAccesses::total        47739                       # number of overall (read+write) accesses (Count)
system.cpu.icache.demandMissRate::cpu.inst     0.037935                       # miss rate for demand accesses (Ratio)
system.cpu.icache.demandMissRate::total      0.037935                       # miss rate for demand accesses (Ratio)
system.cpu.icache.overallMissRate::cpu.inst     0.037935                       # miss rate for overall accesses (Ratio)
system.cpu.icache.overallMissRate::total     0.037935                       # miss rate for overall accesses (Ratio)
system.cpu.icache.demandAvgMissLatency::cpu.inst 56911.651022                       # average overall miss latency in ticks ((Tick/Count))
system.cpu.icache.demandAvgMissLatency::total 56911.651022                       # average overall miss latency in ticks ((Tick/Count))
system.cpu.icache.overallAvgMissLatency::cpu.inst 56911.651022                       # average overall miss latency ((Tick/Count))
system.cpu.icache.overallAvgMissLatency::total 56911.651022                       # average overall miss latency ((Tick/Count))
system.cpu.icache.blockedCycles::no_mshrs          240                       # number of cycles access was blocked (Cycle)
system.cpu.icache.blockedCycles::no_targets            0                       # number of cycles access was blocked (Cycle)
system.cpu.icache.blockedCauses::no_mshrs            5                       # number of times access was blocked (Count)
system.cpu.icache.blockedCauses::no_targets            0                       # number of times access was blocked (Count)
system.cpu.icache.avgBlocked::no_mshrs             48                       # average number of cycles each access was blocked ((Cycle/Count))
system.cpu.icache.avgBlocked::no_targets          nan                       # average number of cycles each access was blocked ((Cycle/Count))
system.cpu.icache.writebacks::writebacks          841                       # number of writebacks (Count)
system.cpu.icache.writebacks::total               841                       # number of writebacks (Count)
system.cpu.icache.demandMshrHits::cpu.inst          465                       # number of demand (read+write) MSHR hits (Count)
system.cpu.icache.demandMshrHits::total           465                       # number of demand (read+write) MSHR hits (Count)
system.cpu.icache.overallMshrHits::cpu.inst          465                       # number of overall MSHR hits (Count)
system.cpu.icache.overallMshrHits::total          465                       # number of overall MSHR hits (Count)
system.cpu.icache.demandMshrMisses::cpu.inst         1346                       # number of demand (read+write) MSHR misses (Count)
system.cpu.icache.demandMshrMisses::total         1346                       # number of demand (read+write) MSHR misses (Count)
system.cpu.icache.overallMshrMisses::cpu.inst         1346                       # number of overall MSHR misses (Count)
system.cpu.icache.overallMshrMisses::total         1346                       # number of overall MSHR misses (Count)
system.cpu.icache.demandMshrMissLatency::cpu.inst     80640000                       # number of demand (read+write) MSHR miss ticks (Tick)
system.cpu.icache.demandMshrMissLatency::total     80640000                       # number of demand (read+write) MSHR miss ticks (Tick)
system.cpu.icache.overallMshrMissLatency::cpu.inst     80640000                       # number of overall MSHR miss ticks (Tick)
system.cpu.icache.overallMshrMissLatency::total     80640000                       # number of overall MSHR miss ticks (Tick)
system.cpu.icache.demandMshrMissRate::cpu.inst     0.028195                       # mshr miss ratio for demand accesses (Ratio)
system.cpu.icache.demandMshrMissRate::total     0.028195                       # mshr miss ratio for demand accesses (Ratio)
system.cpu.icache.overallMshrMissRate::cpu.inst     0.028195                       # mshr miss ratio for overall accesses (Ratio)
system.cpu.icache.overallMshrMissRate::total     0.028195                       # mshr miss ratio for overall accesses (Ratio)
system.cpu.icache.demandAvgMshrMissLatency::cpu.inst 59910.846954                       # average overall mshr miss latency ((Tick/Count))
system.cpu.icache.demandAvgMshrMissLatency::total 59910.846954                       # average overall mshr miss latency ((Tick/Count))
system.cpu.icache.overallAvgMshrMissLatency::cpu.inst 59910.846954                       # average overall mshr miss latency ((Tick/Count))
system.cpu.icache.overallAvgMshrMissLatency::total 59910.846954                       # average overall mshr miss latency ((Tick/Count))
system.cpu.icache.replacements                    841                       # number of replacements (Count)
system.cpu.icache.ReadReq.hits::cpu.inst        45928                       # number of ReadReq hits (Count)
system.cpu.icache.ReadReq.hits::total           45928                       # number of ReadReq hits (Count)
system.cpu.icache.ReadReq.misses::cpu.inst         1811                       # number of ReadReq misses (Count)
system.cpu.icache.ReadReq.misses::total          1811                       # number of ReadReq misses (Count)
system.cpu.icache.ReadReq.missLatency::cpu.inst    103067000                       # number of ReadReq miss ticks (Tick)
system.cpu.icache.ReadReq.missLatency::total    103067000                       # number of ReadReq miss ticks (Tick)
system.cpu.icache.ReadReq.accesses::cpu.inst        47739                       # number of ReadReq accesses(hits+misses) (Count)
system.cpu.icache.ReadReq.accesses::total        47739                       # number of ReadReq accesses(hits+misses) (Count)
system.cpu.icache.ReadReq.missRate::cpu.inst     0.037935                       # miss rate for ReadReq accesses (Ratio)
system.cpu.icache.ReadReq.missRate::total     0.037935                       # miss rate for ReadReq accesses (Ratio)
system.cpu.icache.ReadReq.avgMissLatency::cpu.inst 56911.651022                       # average ReadReq miss latency ((Tick/Count))
system.cpu.icache.ReadReq.avgMissLatency::total 56911.651022                       # average ReadReq miss latency ((Tick/Count))
system.cpu.icache.ReadReq.mshrHits::cpu.inst          465                       # number of ReadReq MSHR hits (Count)
system.cpu.icache.ReadReq.mshrHits::total          465                       # number of ReadReq MSHR hits (Count)
system.cpu.icache.ReadReq.mshrMisses::cpu.inst         1346                       # number of ReadReq MSHR misses (Count)
system.cpu.icache.ReadReq.mshrMisses::total         1346                       # number of ReadReq MSHR misses (Count)
system.cpu.icache.ReadReq.mshrMissLatency::cpu.inst     80640000                       # number of ReadReq MSHR miss ticks (Tick)
system.cpu.icache.ReadReq.mshrMissLatency::total     80640000                       # number of ReadReq MSHR miss ticks (Tick)
system.cpu.icache.ReadReq.mshrMissRate::cpu.inst     0.028195                       # mshr miss rate for ReadReq accesses (Ratio)
system.cpu.icache.ReadReq.mshrMissRate::total     0.028195                       # mshr miss rate for ReadReq accesses (Ratio)
system.cpu.icache.ReadReq.avgMshrMissLatency::cpu.inst 59910.846954                       # average ReadReq mshr miss latency ((Tick/Count))
system.cpu.icache.ReadReq.avgMshrMissLatency::total 59910.846954                       # average ReadReq mshr miss latency ((Tick/Count))
system.cpu.icache.power_state.pwrStateResidencyTicks::UNDEFINED  95149844500                       # Cumulative time (in ticks) in various power states (Tick)
system.cpu.icache.tags.tagsInUse           504.827667                       # Average ticks per tags in use ((Tick/Count))
system.cpu.icache.tags.totalRefs                47274                       # Total number of references to valid blocks. (Count)
system.cpu.icache.tags.sampledRefs               1346                       # Sample count of references to valid blocks. (Count)
system.cpu.icache.tags.avgRefs              35.121842                       # Average number of references to valid blocks. ((Count/Count))
system.cpu.icache.tags.warmupTick               77000                       # The tick when the warmup percentage was hit. (Tick)
system.cpu.icache.tags.occupancies::cpu.inst   504.827667                       # Average occupied blocks per tick, per requestor ((Count/Tick))
system.cpu.icache.tags.avgOccs::cpu.inst     0.985992                       # Average percentage of cache occupancy ((Ratio/Tick))
system.cpu.icache.tags.avgOccs::total        0.985992                       # Average percentage of cache occupancy ((Ratio/Tick))
system.cpu.icache.tags.occupanciesTaskId::1024          505                       # Occupied blocks per task id (Count)
system.cpu.icache.tags.ageTaskId_1024::4          505                       # Occupied blocks per task id, per block age (Count)
system.cpu.icache.tags.ratioOccsTaskId::1024     0.986328                       # Ratio of occupied blocks and all blocks, per task id (Ratio)
system.cpu.icache.tags.tagAccesses              96824                       # Number of tag accesses (Count)
system.cpu.icache.tags.dataAccesses             96824                       # Number of data accesses (Count)
system.cpu.icache.tags.power_state.pwrStateResidencyTicks::UNDEFINED  95149844500                       # Cumulative time (in ticks) in various power states (Tick)
system.cpu.iew.idleCycles                           0                       # Number of cycles IEW is idle (Cycle)
system.cpu.iew.squashCycles                     28052                       # Number of cycles IEW is squashing (Cycle)
system.cpu.iew.blockCycles                     224904                       # Number of cycles IEW is blocking (Cycle)
system.cpu.iew.unblockCycles                 82200060                       # Number of cycles IEW is unblocking (Cycle)
system.cpu.iew.dispatchedInsts               21469006                       # Number of instructions dispatched to IQ (Count)
system.cpu.iew.dispSquashedInsts                  448                       # Number of squashed instructions skipped by dispatch (Count)
system.cpu.iew.dispLoadInsts                    89280                       # Number of dispatched load instructions (Count)
system.cpu.iew.dispStoreInsts                11936527                       # Number of dispatched store instructions (Count)
system.cpu.iew.dispNonSpecInsts                    96                       # Number of dispatched non-speculative instructions (Count)
system.cpu.iew.iqFullEvents                       560                       # Number of times the IQ has become full, causing a stall (Count)
system.cpu.iew.lsqFullEvents                 82220947                       # Number of times the LSQ has become full, causing a stall (Count)
system.cpu.iew.memOrderViolationEvents            116                       # Number of memory order violations (Count)
system.cpu.iew.predictedTakenIncorrect           2471                       # Number of branches that were predicted taken incorrectly (Count)
system.cpu.iew.predictedNotTakenIncorrect         4271                       # Number of branches that were predicted not taken incorrectly (Count)
system.cpu.iew.branchMispredicts                 6742                       # Number of branch mispredicts detected at execute (Count)
system.cpu.iew.mispredictedLVP                  26975                       # mispredictedLVP (Count)
system.cpu.iew.LvpCorrect                        3397                       # LvpCorrect (Count)
system.cpu.iew.instsToCommit                 21362941                       # Cumulative count of insts sent to commit (Count)
system.cpu.iew.writebackCount                20702797                       # Cumulative count of insts written-back (Count)
system.cpu.iew.producerInst                   7603783                       # Number of instructions producing a value (Count)
system.cpu.iew.consumerInst                   9923105                       # Number of instructions consuming a value (Count)
system.cpu.iew.wbRate                        0.108790                       # Insts written-back per cycle ((Count/Cycle))
system.cpu.iew.wbFanout                      0.766271                       # Average fanout of values written-back ((Count/Count))
system.cpu.interrupts.clk_domain.clock           8000                       # Clock period in ticks (Tick)
system.cpu.itb_walker_cache.blockedCycles::no_mshrs            0                       # number of cycles access was blocked (Cycle)
system.cpu.itb_walker_cache.blockedCycles::no_targets            0                       # number of cycles access was blocked (Cycle)
system.cpu.itb_walker_cache.blockedCauses::no_mshrs            0                       # number of times access was blocked (Count)
system.cpu.itb_walker_cache.blockedCauses::no_targets            0                       # number of times access was blocked (Count)
system.cpu.itb_walker_cache.avgBlocked::no_mshrs          nan                       # average number of cycles each access was blocked ((Cycle/Count))
system.cpu.itb_walker_cache.avgBlocked::no_targets          nan                       # average number of cycles each access was blocked ((Cycle/Count))
system.cpu.itb_walker_cache.replacements            0                       # number of replacements (Count)
system.cpu.itb_walker_cache.power_state.pwrStateResidencyTicks::UNDEFINED  95149844500                       # Cumulative time (in ticks) in various power states (Tick)
system.cpu.itb_walker_cache.tags.tagsInUse            0                       # Average ticks per tags in use ((Tick/Count))
system.cpu.itb_walker_cache.tags.totalRefs            0                       # Total number of references to valid blocks. (Count)
system.cpu.itb_walker_cache.tags.sampledRefs            0                       # Sample count of references to valid blocks. (Count)
system.cpu.itb_walker_cache.tags.avgRefs          nan                       # Average number of references to valid blocks. ((Count/Count))
system.cpu.itb_walker_cache.tags.warmupTick            0                       # The tick when the warmup percentage was hit. (Tick)
system.cpu.itb_walker_cache.tags.tagAccesses            0                       # Number of tag accesses (Count)
system.cpu.itb_walker_cache.tags.dataAccesses            0                       # Number of data accesses (Count)
system.cpu.itb_walker_cache.tags.power_state.pwrStateResidencyTicks::UNDEFINED  95149844500                       # Cumulative time (in ticks) in various power states (Tick)
system.cpu.lsq0.forwLoads                        4763                       # Number of loads that had data forwarded from stores (Count)
system.cpu.lsq0.squashedLoads                   37882                       # Number of loads squashed (Count)
system.cpu.lsq0.ignoredResponses                   56                       # Number of memory responses ignored because the instruction is squashed (Count)
system.cpu.lsq0.memOrderViolation                 116                       # Number of memory ordering violations (Count)
system.cpu.lsq0.squashedStores                 709260                       # Number of stores squashed (Count)
system.cpu.lsq0.rescheduledLoads                   24                       # Number of loads that were rescheduled (Count)
system.cpu.lsq0.blockedByCache                    279                       # Number of times an access to memory failed due to the cache being blocked (Count)
system.cpu.lsq0.loadToUse::samples              51398                       # Distribution of cycle latency between the first time a load is issued and its completion (Unspecified)
system.cpu.lsq0.loadToUse::mean             17.486400                       # Distribution of cycle latency between the first time a load is issued and its completion (Unspecified)
system.cpu.lsq0.loadToUse::stdev            44.164278                       # Distribution of cycle latency between the first time a load is issued and its completion (Unspecified)
system.cpu.lsq0.loadToUse::0-9                  44514     86.61%     86.61% # Distribution of cycle latency between the first time a load is issued and its completion (Unspecified)
system.cpu.lsq0.loadToUse::10-19                  318      0.62%     87.23% # Distribution of cycle latency between the first time a load is issued and its completion (Unspecified)
system.cpu.lsq0.loadToUse::20-29                  243      0.47%     87.70% # Distribution of cycle latency between the first time a load is issued and its completion (Unspecified)
system.cpu.lsq0.loadToUse::30-39                  161      0.31%     88.01% # Distribution of cycle latency between the first time a load is issued and its completion (Unspecified)
system.cpu.lsq0.loadToUse::40-49                  150      0.29%     88.30% # Distribution of cycle latency between the first time a load is issued and its completion (Unspecified)
system.cpu.lsq0.loadToUse::50-59                  194      0.38%     88.68% # Distribution of cycle latency between the first time a load is issued and its completion (Unspecified)
system.cpu.lsq0.loadToUse::60-69                  214      0.42%     89.10% # Distribution of cycle latency between the first time a load is issued and its completion (Unspecified)
system.cpu.lsq0.loadToUse::70-79                  189      0.37%     89.46% # Distribution of cycle latency between the first time a load is issued and its completion (Unspecified)
system.cpu.lsq0.loadToUse::80-89                  409      0.80%     90.26% # Distribution of cycle latency between the first time a load is issued and its completion (Unspecified)
[...]
system.mem_ctrls.dram.perBankWrBursts::0        87633                       # Per bank write bursts (Count)
system.mem_ctrls.dram.perBankWrBursts::1        87609                       # Per bank write bursts (Count)
system.mem_ctrls.dram.perBankWrBursts::2        87632                       # Per bank write bursts (Count)
system.mem_ctrls.dram.perBankWrBursts::3        87613                       # Per bank write bursts (Count)
system.mem_ctrls.dram.perBankWrBursts::4        87606                       # Per bank write bursts (Count)
system.mem_ctrls.dram.perBankWrBursts::5        87626                       # Per bank write bursts (Count)
system.mem_ctrls.dram.perBankWrBursts::6        87623                       # Per bank write bursts (Count)
system.mem_ctrls.dram.perBankWrBursts::7        87529                       # Per bank write bursts (Count)
system.mem_ctrls.dram.perBankWrBursts::8        87598                       # Per bank write bursts (Count)
system.mem_ctrls.dram.perBankWrBursts::9        87516                       # Per bank write bursts (Count)
system.mem_ctrls.dram.perBankWrBursts::10        87480                       # Per bank write bursts (Count)
system.mem_ctrls.dram.perBankWrBursts::11        87537                       # Per bank write bursts (Count)
system.mem_ctrls.dram.perBankWrBursts::12        87534                       # Per bank write bursts (Count)
system.mem_ctrls.dram.perBankWrBursts::13        87512                       # Per bank write bursts (Count)
system.mem_ctrls.dram.perBankWrBursts::14        87598                       # Per bank write bursts (Count)
system.mem_ctrls.dram.perBankWrBursts::15        87627                       # Per bank write bursts (Count)
system.mem_ctrls.dram.totQLat             13367069250                       # Total ticks spent queuing (Tick)
system.mem_ctrls.dram.totBusLat            7025520000                       # Total ticks spent in databus transfers (Tick)
system.mem_ctrls.dram.totMemAccLat        39712769250                       # Total ticks spent from burst creation until serviced by the DRAM (Tick)
system.mem_ctrls.dram.avgQLat                 9513.22                       # Average queueing delay per DRAM burst ((Tick/Count))
system.mem_ctrls.dram.avgBusLat               5000.00                       # Average bus latency per DRAM burst ((Tick/Count))
system.mem_ctrls.dram.avgMemAccLat           28263.22                       # Average memory access latency per DRAM burst ((Tick/Count))
system.mem_ctrls.dram.readRowHits             1305474                       # Number of row buffer hits during reads (Count)
system.mem_ctrls.dram.writeRowHits            1303180                       # Number of row buffer hits during writes (Count)
system.mem_ctrls.dram.readRowHitRate            92.91                       # Row buffer hit rate for reads (Ratio)
system.mem_ctrls.dram.writeRowHitRate           93.00                       # Row buffer hit rate for writes (Ratio)
system.mem_ctrls.dram.bytesPerActivate::samples       197722                       # Bytes accessed per row activation (Byte)
system.mem_ctrls.dram.bytesPerActivate::mean   908.384580                       # Bytes accessed per row activation (Byte)
system.mem_ctrls.dram.bytesPerActivate::gmean   829.417402                       # Bytes accessed per row activation (Byte)
system.mem_ctrls.dram.bytesPerActivate::stdev   254.382320                       # Bytes accessed per row activation (Byte)
system.mem_ctrls.dram.bytesPerActivate::0-127         3579      1.81%      1.81% # Bytes accessed per row activation (Byte)
system.mem_ctrls.dram.bytesPerActivate::128-255         6179      3.13%      4.94% # Bytes accessed per row activation (Byte)
system.mem_ctrls.dram.bytesPerActivate::256-383         5558      2.81%      7.75% # Bytes accessed per row activation (Byte)
system.mem_ctrls.dram.bytesPerActivate::384-511         5776      2.92%     10.67% # Bytes accessed per row activation (Byte)
system.mem_ctrls.dram.bytesPerActivate::512-639         6338      3.21%     13.87% # Bytes accessed per row activation (Byte)
system.mem_ctrls.dram.bytesPerActivate::640-767         5608      2.84%     16.71% # Bytes accessed per row activation (Byte)
system.mem_ctrls.dram.bytesPerActivate::768-895         4843      2.45%     19.16% # Bytes accessed per row activation (Byte)
system.mem_ctrls.dram.bytesPerActivate::896-1023         4873      2.46%     21.62% # Bytes accessed per row activation (Byte)
system.mem_ctrls.dram.bytesPerActivate::1024-1151       154968     78.38%    100.00% # Bytes accessed per row activation (Byte)
system.mem_ctrls.dram.bytesPerActivate::total       197722                       # Bytes accessed per row activation (Byte)
system.mem_ctrls.dram.bytesRead              89926656                       # Total bytes read (Byte)
system.mem_ctrls.dram.bytesWritten           89681472                       # Total bytes written (Byte)
system.mem_ctrls.dram.avgRdBW              945.105654                       # Average DRAM read bandwidth in MiBytes/s ((Byte/Second))
system.mem_ctrls.dram.avgWrBW              942.528834                       # Average DRAM write bandwidth in MiBytes/s ((Byte/Second))
system.mem_ctrls.dram.peakBW                 12800.00                       # Theoretical peak bandwidth in MiByte/s ((Byte/Second))
system.mem_ctrls.dram.busUtil                   14.75                       # Data bus utilization in percentage (Ratio)
system.mem_ctrls.dram.busUtilRead                7.38                       # Data bus utilization in percentage for reads (Ratio)
system.mem_ctrls.dram.busUtilWrite               7.36                       # Data bus utilization in percentage for writes (Ratio)
system.mem_ctrls.dram.pageHitRate               92.95                       # Row buffer hit rate, read and write combined (Ratio)
system.mem_ctrls.dram.power_state.pwrStateResidencyTicks::UNDEFINED  95149844500                       # Cumulative time (in ticks) in various power states (Tick)
system.mem_ctrls.dram.rank0.actEnergy       706324500                       # Energy for activate commands per rank (pJ) (Joule)
system.mem_ctrls.dram.rank0.preEnergy       375420375                       # Energy for precharge commands per rank (pJ) (Joule)
system.mem_ctrls.dram.rank0.readEnergy     5017613580                       # Energy for read commands per rank (pJ) (Joule)
system.mem_ctrls.dram.rank0.writeEnergy    3658546620                       # Energy for write commands per rank (pJ) (Joule)
system.mem_ctrls.dram.rank0.refreshEnergy 7510900800.000001                       # Energy for refresh commands per rank (pJ) (Joule)
system.mem_ctrls.dram.rank0.actBackEnergy  33120952380                       # Energy for active background per rank (pJ) (Joule)
system.mem_ctrls.dram.rank0.preBackEnergy   8646212160                       # Energy for precharge background per rank (pJ) (Joule)
system.mem_ctrls.dram.rank0.actPowerDownEnergy            0                       # Energy for active power-down per rank (pJ) (Joule)
system.mem_ctrls.dram.rank0.prePowerDownEnergy            0                       # Energy for precharge power-down per rank (pJ) (Joule)
system.mem_ctrls.dram.rank0.selfRefreshEnergy            0                       # Energy for self refresh per rank (pJ) (Joule)
system.mem_ctrls.dram.rank0.totalEnergy   59035970415                       # Total energy per rank (pJ) (Joule)
system.mem_ctrls.dram.rank0.averagePower   620.452621                       # Core power per rank (mW) (Watt)
system.mem_ctrls.dram.rank0.totalIdleTime            0                       # Total Idle time Per DRAM Rank (Tick)
system.mem_ctrls.dram.rank0.pwrStateTime::IDLE  21559522500                       # Time in different power states (Tick)
system.mem_ctrls.dram.rank0.pwrStateTime::REF   3177200000                       # Time in different power states (Tick)
system.mem_ctrls.dram.rank0.pwrStateTime::SREF            0                       # Time in different power states (Tick)
system.mem_ctrls.dram.rank0.pwrStateTime::PRE_PDN            0                       # Time in different power states (Tick)
system.mem_ctrls.dram.rank0.pwrStateTime::ACT  70413122000                       # Time in different power states (Tick)
system.mem_ctrls.dram.rank0.pwrStateTime::ACT_PDN            0                       # Time in different power states (Tick)
system.mem_ctrls.dram.rank1.actEnergy       705417720                       # Energy for activate commands per rank (pJ) (Joule)
system.mem_ctrls.dram.rank1.preEnergy       374934615                       # Energy for precharge commands per rank (pJ) (Joule)
system.mem_ctrls.dram.rank1.readEnergy     5014828980                       # Energy for read commands per rank (pJ) (Joule)
system.mem_ctrls.dram.rank1.writeEnergy    3656098440                       # Energy for write commands per rank (pJ) (Joule)
system.mem_ctrls.dram.rank1.refreshEnergy 7510900800.000001                       # Energy for refresh commands per rank (pJ) (Joule)
system.mem_ctrls.dram.rank1.actBackEnergy  33118072740                       # Energy for active background per rank (pJ) (Joule)
system.mem_ctrls.dram.rank1.preBackEnergy   8648637120                       # Energy for precharge background per rank (pJ) (Joule)
system.mem_ctrls.dram.rank1.actPowerDownEnergy            0                       # Energy for active power-down per rank (pJ) (Joule)
system.mem_ctrls.dram.rank1.prePowerDownEnergy            0                       # Energy for precharge power-down per rank (pJ) (Joule)
system.mem_ctrls.dram.rank1.selfRefreshEnergy            0                       # Energy for self refresh per rank (pJ) (Joule)
system.mem_ctrls.dram.rank1.totalEnergy   59028890415                       # Total energy per rank (pJ) (Joule)
system.mem_ctrls.dram.rank1.averagePower   620.378212                       # Core power per rank (mW) (Watt)
system.mem_ctrls.dram.rank1.totalIdleTime            0                       # Total Idle time Per DRAM Rank (Tick)
system.mem_ctrls.dram.rank1.pwrStateTime::IDLE  21566511000                       # Time in different power states (Tick)
system.mem_ctrls.dram.rank1.pwrStateTime::REF   3177200000                       # Time in different power states (Tick)
system.mem_ctrls.dram.rank1.pwrStateTime::SREF            0                       # Time in different power states (Tick)
system.mem_ctrls.dram.rank1.pwrStateTime::PRE_PDN            0                       # Time in different power states (Tick)
system.mem_ctrls.dram.rank1.pwrStateTime::ACT  70406133500                       # Time in different power states (Tick)
system.mem_ctrls.dram.rank1.pwrStateTime::ACT_PDN            0                       # Time in different power states (Tick)
system.mem_ctrls.power_state.pwrStateResidencyTicks::UNDEFINED  95149844500                       # Cumulative time (in ticks) in various power states (Tick)
system.membus.transDist::ReadResp                3805                       # Transaction distribution (Count)
system.membus.transDist::WritebackDirty       1400519                       # Transaction distribution (Count)
system.membus.transDist::WritebackClean           841                       # Transaction distribution (Count)
system.membus.transDist::CleanEvict              2351                       # Transaction distribution (Count)
system.membus.transDist::ReadExReq            1401435                       # Transaction distribution (Count)
system.membus.transDist::ReadExResp           1401435                       # Transaction distribution (Count)
system.membus.transDist::ReadCleanReq            1346                       # Transaction distribution (Count)
system.membus.transDist::ReadSharedReq           2459                       # Transaction distribution (Count)
system.membus.pktCount_system.cpu.icache.mem_side_port::system.mem_ctrls.port         3533                       # Packet count per connected requestor and responder (Count)
system.membus.pktCount_system.cpu.icache.mem_side_port::total         3533                       # Packet count per connected requestor and responder (Count)
system.membus.pktCount_system.cpu.dcache.mem_side_port::system.mem_ctrls.port      4210658                       # Packet count per connected requestor and responder (Count)
system.membus.pktCount_system.cpu.dcache.mem_side_port::total      4210658                       # Packet count per connected requestor and responder (Count)
system.membus.pktCount::total                 4214191                       # Packet count per connected requestor and responder (Count)
system.membus.pktSize_system.cpu.icache.mem_side_port::system.mem_ctrls.port       139968                       # Cumulative packet size per connected requestor and responder (Byte)
system.membus.pktSize_system.cpu.icache.mem_side_port::total       139968                       # Cumulative packet size per connected requestor and responder (Byte)
system.membus.pktSize_system.cpu.dcache.mem_side_port::system.mem_ctrls.port    179482432                       # Cumulative packet size per connected requestor and responder (Byte)
system.membus.pktSize_system.cpu.dcache.mem_side_port::total    179482432                       # Cumulative packet size per connected requestor and responder (Byte)
system.membus.pktSize::total                179622400                       # Cumulative packet size per connected requestor and responder (Byte)
system.membus.snoops                                0                       # Total snoops (Count)
system.membus.snoopTraffic                          0                       # Total snoop traffic (Byte)
system.membus.snoopFanout::samples            1405240                       # Request fanout histogram (Count)
system.membus.snoopFanout::mean              0.000004                       # Request fanout histogram (Count)
system.membus.snoopFanout::stdev             0.002066                       # Request fanout histogram (Count)
system.membus.snoopFanout::underflows               0      0.00%      0.00% # Request fanout histogram (Count)
system.membus.snoopFanout::0                  1405234    100.00%    100.00% # Request fanout histogram (Count)
system.membus.snoopFanout::1                        6      0.00%    100.00% # Request fanout histogram (Count)
system.membus.snoopFanout::2                        0      0.00%    100.00% # Request fanout histogram (Count)
system.membus.snoopFanout::3                        0      0.00%    100.00% # Request fanout histogram (Count)
system.membus.snoopFanout::4                        0      0.00%    100.00% # Request fanout histogram (Count)
system.membus.snoopFanout::overflows                0      0.00%    100.00% # Request fanout histogram (Count)
system.membus.snoopFanout::min_value                0                       # Request fanout histogram (Count)
system.membus.snoopFanout::max_value                1                       # Request fanout histogram (Count)
system.membus.snoopFanout::total              1405240                       # Request fanout histogram (Count)
system.membus.power_state.pwrStateResidencyTicks::UNDEFINED  95149844500                       # Cumulative time (in ticks) in various power states (Tick)
system.membus.reqLayer2.occupancy          8415154500                       # Layer occupancy (ticks) (Tick)
system.membus.reqLayer2.utilization               0.1                       # Layer utilization (Ratio)
system.membus.respLayer1.occupancy            7112500                       # Layer occupancy (ticks) (Tick)
system.membus.respLayer1.utilization              0.0                       # Layer utilization (Ratio)
system.membus.respLayer2.occupancy         7389706250                       # Layer occupancy (ticks) (Tick)
system.membus.respLayer2.utilization              0.1                       # Layer utilization (Ratio)
system.membus.snoop_filter.totRequests        2808951                       # Total number of requests made to the snoop filter. (Count)
system.membus.snoop_filter.hitSingleRequests      1403711                       # Number of requests hitting in the snoop filter with a single holder of the requested data. (Count)
system.membus.snoop_filter.hitMultiRequests            6                       # Number of requests hitting in the snoop filter with multiple (>1) holders of the requested data. (Count)
system.membus.snoop_filter.totSnoops                0                       # Total number of snoops made to the snoop filter. (Count)
system.membus.snoop_filter.hitSingleSnoops            0                       # Number of snoops hitting in the snoop filter with a single holder of the requested data. (Count)
system.membus.snoop_filter.hitMultiSnoops            0                       # Number of snoops hitting in the snoop filter with multiple (>1) holders of the requested data. (Count)
system.voltage_domain.voltage                       1                       # Voltage in Volts (Volt)
system.workload.inst.arm                            0                       # number of arm instructions executed (Count)
system.workload.inst.quiesce                        0                       # number of quiesce instructions executed (Count)
system.cpu.loadValPred.constant_verification_unit.constLoadHits        13549                       # Number of loads marked constant that hit in the CVU CAM (Unspecified)
system.cpu.loadValPred.constant_verification_unit.constLoadMisses         7348                       # Number of loads marked constant that missed in the CVU CAM (Unspecified)
system.cpu.loadValPred.constant_verification_unit.numCAMReplacements         3245                       # Number of CVU CAM entries replaced (Unspecified)
system.cpu.loadValPred.constant_verification_unit.numLoadAccesses        20897                       # Number of loads marked constant which accessed the CVU (Unspecified)
system.cpu.loadValPred.constant_verification_unit.numStoreAccesses     11276512                       # Number of store instructions which accessed the CVU (Unspecified)
system.cpu.loadValPred.constant_verification_unit.numStoreHits         4184                       # Number of stores that hit in the CVU CAM (Unspecified)
system.cpu.loadValPred.constant_verification_unit.numStoreMisses     11272328                       # Number of stores that missed in the CVU CAM (Unspecified)
system.cpu.loadValPred.numConstLoads            22698                       # Number of loads classified as constant (Unspecified)
system.cpu.loadValPred.numConstLoadsCorrect        13549                       # Number of constant loads correctly predicted (Unspecified)
system.cpu.loadValPred.numConstLoadsMispredicted         7348                       # Number of constant loads incorrectly predicted (Unspecified)
system.cpu.loadValPred.numConstValOne             366                       # Number of constant loads with value 1 (Unspecified)
system.cpu.loadValPred.numConstValZero           2235                       # Number of constant loads with value 0 (Unspecified)
system.cpu.loadValPred.numPredictableLoads        10477                       # Number of loads classified as predictable (Unspecified)
system.cpu.loadValPred.numPredictableLoadsCorrect         7343                       # Number of loads correctly classified as predictable (Unspecified)
system.cpu.loadValPred.numPredictableLoadsIncorrect         2132                       # Number of loads incorrectly classified as predictable (Unspecified)
system.cpu.loadValPred.totalLoads               76845                       # Total loads processed by the Load value predictor (Unspecified)
system.cpu.loadValPred.valueLocalityNumerator        34217                       # Number predictions corrects (Unspecified)

---------- End Simulation Statistics   ----------
