
---------- Begin Simulation Statistics ----------
simSeconds                                   0.004481                       # Number of seconds simulated (Second)
simTicks                                   4480575500                       # Number of ticks simulated (Tick)
finalTick                                  4480575500                       # Number of ticks from beginning of simulation (restored from checkpoints and never reset) (Tick)
simFreq                                  1000000000000                       # The number of ticks per simulated second ((Tick/Second))
hostSeconds                                    117.44                       # Real time elapsed on the host (Second)
hostTickRate                                 38151247                       # The number of ticks simulated per host second (ticks/s) ((Tick/Second))
hostMemory                                    8722524                       # Number of bytes of host memory used (Byte)
simInsts                                     10000004                       # Number of instructions simulated (Count)
simOps                                       18302657                       # Number of ops (including micro ops) simulated (Count)
hostInstRate                                    85148                       # Simulator instruction rate (inst/s) ((Count/Second))
hostOpRate                                     155843                       # Simulator op (including micro ops) rate (op/s) ((Count/Second))
system.clk_domain.clock                          1000                       # Clock period in ticks (Tick)
system.cpu.numCycles                          8961152                       # Number of cpu cycles simulated (Cycle)
system.cpu.numWorkItemsStarted                      0                       # Number of work items this cpu started (Count)
system.cpu.numWorkItemsCompleted                    0                       # Number of work items this cpu completed (Count)
system.cpu.instsAdded                        23916247                       # Number of instructions added to the IQ (excludes non-spec) (Count)
system.cpu.nonSpecInstsAdded                      169                       # Number of non-speculative instructions added to the IQ (Count)
system.cpu.instsIssued                       21511116                       # Number of instructions issued (Count)
system.cpu.squashedInstsIssued                   3701                       # Number of squashed instructions issued (Count)
system.cpu.squashedInstsExamined              5613730                       # Number of squashed instructions iterated over during squash; mainly for profiling (Count)
system.cpu.squashedOperandsExamined          14653833                       # Number of squashed operands that are examined and possibly removed from graph (Count)
system.cpu.squashedNonSpecRemoved                  88                       # Number of squashed non-spec instructions that were removed (Count)
system.cpu.numIssuedDist::samples             8915533                       # Number of insts issued each cycle (Count)
system.cpu.numIssuedDist::mean               2.412768                       # Number of insts issued each cycle (Count)
system.cpu.numIssuedDist::stdev              2.224046                       # Number of insts issued each cycle (Count)
system.cpu.numIssuedDist::underflows                0      0.00%      0.00% # Number of insts issued each cycle (Count)
system.cpu.numIssuedDist::0                   2597937     29.14%     29.14% # Number of insts issued each cycle (Count)
system.cpu.numIssuedDist::1                   1415776     15.88%     45.02% # Number of insts issued each cycle (Count)
system.cpu.numIssuedDist::2                    864436      9.70%     54.72% # Number of insts issued each cycle (Count)
system.cpu.numIssuedDist::3                   1228433     13.78%     68.49% # Number of insts issued each cycle (Count)
system.cpu.numIssuedDist::4                    748566      8.40%     76.89% # Number of insts issued each cycle (Count)
system.cpu.numIssuedDist::5                   1196315     13.42%     90.31% # Number of insts issued each cycle (Count)
system.cpu.numIssuedDist::6                    497296      5.58%     95.89% # Number of insts issued each cycle (Count)
system.cpu.numIssuedDist::7                    212638      2.39%     98.27% # Number of insts issued each cycle (Count)
system.cpu.numIssuedDist::8                    154136      1.73%    100.00% # Number of insts issued each cycle (Count)
system.cpu.numIssuedDist::overflows                 0      0.00%    100.00% # Number of insts issued each cycle (Count)
system.cpu.numIssuedDist::min_value                 0                       # Number of insts issued each cycle (Count)
system.cpu.numIssuedDist::max_value                 8                       # Number of insts issued each cycle (Count)
system.cpu.numIssuedDist::total               8915533                       # Number of insts issued each cycle (Count)
system.cpu.statFuBusy::No_OpClass                   0      0.00%      0.00% # attempts to use FU when none available (Count)
system.cpu.statFuBusy::IntAlu                   17521     57.78%     57.78% # attempts to use FU when none available (Count)
system.cpu.statFuBusy::IntMult                      0      0.00%     57.78% # attempts to use FU when none available (Count)
system.cpu.statFuBusy::IntDiv                       0      0.00%     57.78% # attempts to use FU when none available (Count)
system.cpu.statFuBusy::FloatAdd                     0      0.00%     57.78% # attempts to use FU when none available (Count)
system.cpu.statFuBusy::FloatCmp                     0      0.00%     57.78% # attempts to use FU when none available (Count)
system.cpu.statFuBusy::FloatCvt                     0      0.00%     57.78% # attempts to use FU when none available (Count)
system.cpu.statFuBusy::FloatMult                    0      0.00%     57.78% # attempts to use FU when none available (Count)
system.cpu.statFuBusy::FloatMultAcc                 0      0.00%     57.78% # attempts to use FU when none available (Count)
system.cpu.statFuBusy::FloatDiv                     0      0.00%     57.78% # attempts to use FU when none available (Count)
system.cpu.statFuBusy::FloatMisc                    0      0.00%     57.78% # attempts to use FU when none available (Count)
system.cpu.statFuBusy::FloatSqrt                    0      0.00%     57.78% # attempts to use FU when none available (Count)
system.cpu.statFuBusy::SimdAdd                      0      0.00%     57.78% # attempts to use FU when none available (Count)
system.cpu.statFuBusy::SimdAddAcc                   0      0.00%     57.78% # attempts to use FU when none available (Count)
system.cpu.statFuBusy::SimdAlu                      0      0.00%     57.78% # attempts to use FU when none available (Count)
system.cpu.statFuBusy::SimdCmp                      0      0.00%     57.78% # attempts to use FU when none available (Count)
system.cpu.statFuBusy::SimdCvt                      0      0.00%     57.78% # attempts to use FU when none available (Count)
system.cpu.statFuBusy::SimdMisc                     0      0.00%     57.78% # attempts to use FU when none available (Count)
system.cpu.statFuBusy::SimdMult                     0      0.00%     57.78% # attempts to use FU when none available (Count)
system.cpu.statFuBusy::SimdMultAcc                  0      0.00%     57.78% # attempts to use FU when none available (Count)
system.cpu.statFuBusy::SimdShift                    0      0.00%     57.78% # attempts to use FU when none available (Count)
system.cpu.statFuBusy::SimdShiftAcc                 0      0.00%     57.78% # attempts to use FU when none available (Count)
system.cpu.statFuBusy::SimdDiv                      0      0.00%     57.78% # attempts to use FU when none available (Count)
system.cpu.statFuBusy::SimdSqrt                     0      0.00%     57.78% # attempts to use FU when none available (Count)
system.cpu.statFuBusy::SimdFloatAdd                 0      0.00%     57.78% # attempts to use FU when none available (Count)
system.cpu.statFuBusy::SimdFloatAlu                 0      0.00%     57.78% # attempts to use FU when none available (Count)
system.cpu.statFuBusy::SimdFloatCmp                 0      0.00%     57.78% # attempts to use FU when none available (Count)
system.cpu.statFuBusy::SimdFloatCvt                 0      0.00%     57.78% # attempts to use FU when none available (Count)
system.cpu.statFuBusy::SimdFloatDiv                 0      0.00%     57.78% # attempts to use FU when none available (Count)
system.cpu.statFuBusy::SimdFloatMisc                0      0.00%     57.78% # attempts to use FU when none available (Count)
system.cpu.statFuBusy::SimdFloatMult                0      0.00%     57.78% # attempts to use FU when none available (Count)
system.cpu.statFuBusy::SimdFloatMultAcc             0      0.00%     57.78% # attempts to use FU when none available (Count)
system.cpu.statFuBusy::SimdFloatSqrt                0      0.00%     57.78% # attempts to use FU when none available (Count)
system.cpu.statFuBusy::SimdReduceAdd                0      0.00%     57.78% # attempts to use FU when none available (Count)
system.cpu.statFuBusy::SimdReduceAlu                0      0.00%     57.78% # attempts to use FU when none available (Count)
system.cpu.statFuBusy::SimdReduceCmp                0      0.00%     57.78% # attempts to use FU when none available (Count)
system.cpu.statFuBusy::SimdFloatReduceAdd            0      0.00%     57.78% # attempts to use FU when none available (Count)
system.cpu.statFuBusy::SimdFloatReduceCmp            0      0.00%     57.78% # attempts to use FU when none available (Count)
system.cpu.statFuBusy::SimdAes                      0      0.00%     57.78% # attempts to use FU when none available (Count)
system.cpu.statFuBusy::SimdAesMix                   0      0.00%     57.78% # attempts to use FU when none available (Count)
system.cpu.statFuBusy::SimdSha1Hash                 0      0.00%     57.78% # attempts to use FU when none available (Count)
system.cpu.statFuBusy::SimdSha1Hash2                0      0.00%     57.78% # attempts to use FU when none available (Count)
system.cpu.statFuBusy::SimdSha256Hash               0      0.00%     57.78% # attempts to use FU when none available (Count)
system.cpu.statFuBusy::SimdSha256Hash2              0      0.00%     57.78% # attempts to use FU when none available (Count)
system.cpu.statFuBusy::SimdShaSigma2                0      0.00%     57.78% # attempts to use FU when none available (Count)
system.cpu.statFuBusy::SimdShaSigma3                0      0.00%     57.78% # attempts to use FU when none available (Count)
system.cpu.statFuBusy::SimdPredAlu                  0      0.00%     57.78% # attempts to use FU when none available (Count)
system.cpu.statFuBusy::MemRead                   5213     17.19%     74.97% # attempts to use FU when none available (Count)
system.cpu.statFuBusy::MemWrite                  7399     24.40%     99.37% # attempts to use FU when none available (Count)
system.cpu.statFuBusy::FloatMemRead               190      0.63%    100.00% # attempts to use FU when none available (Count)
system.cpu.statFuBusy::FloatMemWrite                0      0.00%    100.00% # attempts to use FU when none available (Count)
system.cpu.statFuBusy::IprAccess                    0      0.00%    100.00% # attempts to use FU when none available (Count)
system.cpu.statFuBusy::InstPrefetch                 0      0.00%    100.00% # attempts to use FU when none available (Count)
system.cpu.statIssuedInstType_0::No_OpClass         9918      0.05%      0.05% # Number of instructions issued per FU type, per thread (Count)
system.cpu.statIssuedInstType_0::IntAlu      14695616     68.32%     68.36% # Number of instructions issued per FU type, per thread (Count)
system.cpu.statIssuedInstType_0::IntMult          203      0.00%     68.36% # Number of instructions issued per FU type, per thread (Count)
system.cpu.statIssuedInstType_0::IntDiv         25061      0.12%     68.48% # Number of instructions issued per FU type, per thread (Count)
system.cpu.statIssuedInstType_0::FloatAdd       461470      2.15%     70.63% # Number of instructions issued per FU type, per thread (Count)
system.cpu.statIssuedInstType_0::FloatCmp            0      0.00%     70.63% # Number of instructions issued per FU type, per thread (Count)
system.cpu.statIssuedInstType_0::FloatCvt          160      0.00%     70.63% # Number of instructions issued per FU type, per thread (Count)
system.cpu.statIssuedInstType_0::FloatMult            0      0.00%     70.63% # Number of instructions issued per FU type, per thread (Count)
system.cpu.statIssuedInstType_0::FloatMultAcc            0      0.00%     70.63% # Number of instructions issued per FU type, per thread (Count)
system.cpu.statIssuedInstType_0::FloatDiv            0      0.00%     70.63% # Number of instructions issued per FU type, per thread (Count)
system.cpu.statIssuedInstType_0::FloatMisc            0      0.00%     70.63% # Number of instructions issued per FU type, per thread (Count)
system.cpu.statIssuedInstType_0::FloatSqrt            0      0.00%     70.63% # Number of instructions issued per FU type, per thread (Count)
system.cpu.statIssuedInstType_0::SimdAdd            0      0.00%     70.63% # Number of instructions issued per FU type, per thread (Count)
system.cpu.statIssuedInstType_0::SimdAddAcc            0      0.00%     70.63% # Number of instructions issued per FU type, per thread (Count)
system.cpu.statIssuedInstType_0::SimdAlu            2      0.00%     70.63% # Number of instructions issued per FU type, per thread (Count)
system.cpu.statIssuedInstType_0::SimdCmp            0      0.00%     70.63% # Number of instructions issued per FU type, per thread (Count)
system.cpu.statIssuedInstType_0::SimdCvt           27      0.00%     70.63% # Number of instructions issued per FU type, per thread (Count)
system.cpu.statIssuedInstType_0::SimdMisc        40062      0.19%     70.81% # Number of instructions issued per FU type, per thread (Count)
system.cpu.statIssuedInstType_0::SimdMult            0      0.00%     70.81% # Number of instructions issued per FU type, per thread (Count)
system.cpu.statIssuedInstType_0::SimdMultAcc            0      0.00%     70.81% # Number of instructions issued per FU type, per thread (Count)
system.cpu.statIssuedInstType_0::SimdShift            0      0.00%     70.81% # Number of instructions issued per FU type, per thread (Count)
system.cpu.statIssuedInstType_0::SimdShiftAcc            0      0.00%     70.81% # Number of instructions issued per FU type, per thread (Count)
system.cpu.statIssuedInstType_0::SimdDiv            0      0.00%     70.81% # Number of instructions issued per FU type, per thread (Count)
system.cpu.statIssuedInstType_0::SimdSqrt            0      0.00%     70.81% # Number of instructions issued per FU type, per thread (Count)
system.cpu.statIssuedInstType_0::SimdFloatAdd            0      0.00%     70.81% # Number of instructions issued per FU type, per thread (Count)
system.cpu.statIssuedInstType_0::SimdFloatAlu            0      0.00%     70.81% # Number of instructions issued per FU type, per thread (Count)
system.cpu.statIssuedInstType_0::SimdFloatCmp            0      0.00%     70.81% # Number of instructions issued per FU type, per thread (Count)
system.cpu.statIssuedInstType_0::SimdFloatCvt       263622      1.23%     72.04% # Number of instructions issued per FU type, per thread (Count)
system.cpu.statIssuedInstType_0::SimdFloatDiv        20025      0.09%     72.13% # Number of instructions issued per FU type, per thread (Count)
system.cpu.statIssuedInstType_0::SimdFloatMisc            0      0.00%     72.13% # Number of instructions issued per FU type, per thread (Count)
system.cpu.statIssuedInstType_0::SimdFloatMult            0      0.00%     72.13% # Number of instructions issued per FU type, per thread (Count)
system.cpu.statIssuedInstType_0::SimdFloatMultAcc            0      0.00%     72.13% # Number of instructions issued per FU type, per thread (Count)
system.cpu.statIssuedInstType_0::SimdFloatSqrt            0      0.00%     72.13% # Number of instructions issued per FU type, per thread (Count)
system.cpu.statIssuedInstType_0::SimdReduceAdd            0      0.00%     72.13% # Number of instructions issued per FU type, per thread (Count)
system.cpu.statIssuedInstType_0::SimdReduceAlu            0      0.00%     72.13% # Number of instructions issued per FU type, per thread (Count)
system.cpu.statIssuedInstType_0::SimdReduceCmp            0      0.00%     72.13% # Number of instructions issued per FU type, per thread (Count)
system.cpu.statIssuedInstType_0::SimdFloatReduceAdd            0      0.00%     72.13% # Number of instructions issued per FU type, per thread (Count)
system.cpu.statIssuedInstType_0::SimdFloatReduceCmp            0      0.00%     72.13% # Number of instructions issued per FU type, per thread (Count)
system.cpu.statIssuedInstType_0::SimdAes            0      0.00%     72.13% # Number of instructions issued per FU type, per thread (Count)
system.cpu.statIssuedInstType_0::SimdAesMix            0      0.00%     72.13% # Number of instructions issued per FU type, per thread (Count)
system.cpu.statIssuedInstType_0::SimdSha1Hash            0      0.00%     72.13% # Number of instructions issued per FU type, per thread (Count)
system.cpu.statIssuedInstType_0::SimdSha1Hash2            0      0.00%     72.13% # Number of instructions issued per FU type, per thread (Count)
system.cpu.statIssuedInstType_0::SimdSha256Hash            0      0.00%     72.13% # Number of instructions issued per FU type, per thread (Count)
system.cpu.statIssuedInstType_0::SimdSha256Hash2            0      0.00%     72.13% # Number of instructions issued per FU type, per thread (Count)
system.cpu.statIssuedInstType_0::SimdShaSigma2            0      0.00%     72.13% # Number of instructions issued per FU type, per thread (Count)
system.cpu.statIssuedInstType_0::SimdShaSigma3            0      0.00%     72.13% # Number of instructions issued per FU type, per thread (Count)
system.cpu.statIssuedInstType_0::SimdPredAlu            0      0.00%     72.13% # Number of instructions issued per FU type, per thread (Count)
system.cpu.statIssuedInstType_0::MemRead      3498690     16.26%     88.40% # Number of instructions issued per FU type, per thread (Count)
system.cpu.statIssuedInstType_0::MemWrite      1612999      7.50%     95.89% # Number of instructions issued per FU type, per thread (Count)
system.cpu.statIssuedInstType_0::FloatMemRead       882949      4.10%    100.00% # Number of instructions issued per FU type, per thread (Count)
system.cpu.statIssuedInstType_0::FloatMemWrite          312      0.00%    100.00% # Number of instructions issued per FU type, per thread (Count)
system.cpu.statIssuedInstType_0::IprAccess            0      0.00%    100.00% # Number of instructions issued per FU type, per thread (Count)
system.cpu.statIssuedInstType_0::InstPrefetch            0      0.00%    100.00% # Number of instructions issued per FU type, per thread (Count)
system.cpu.statIssuedInstType_0::total       21511116                       # Number of instructions issued per FU type, per thread (Count)
system.cpu.issueRate                         2.400486                       # Inst issue rate ((Count/Cycle))
system.cpu.fuBusy                               30323                       # FU busy when requested (Count)
system.cpu.fuBusyRate                        0.001410                       # FU busy rate (busy events/executed inst) ((Count/Count))
system.cpu.intInstQueueReads                 48634229                       # Number of integer instruction queue reads (Count)
system.cpu.intInstQueueWrites                26825501                       # Number of integer instruction queue writes (Count)
system.cpu.intInstQueueWakeupAccesses        19308993                       # Number of integer instruction queue wakeup accesses (Count)
system.cpu.fpInstQueueReads                   3337556                       # Number of floating instruction queue reads (Count)
system.cpu.fpInstQueueWrites                  2704790                       # Number of floating instruction queue writes (Count)
system.cpu.fpInstQueueWakeupAccesses          1232685                       # Number of floating instruction queue wakeup accesses (Count)
system.cpu.vecInstQueueReads                        0                       # Number of vector instruction queue reads (Count)
system.cpu.vecInstQueueWrites                       0                       # Number of vector instruction queue writes (Count)
system.cpu.vecInstQueueWakeupAccesses               0                       # Number of vector instruction queue wakeup accesses (Count)
system.cpu.intAluAccesses                    19862686                       # Number of integer alu accesses (Count)
system.cpu.fpAluAccesses                      1668835                       # Number of floating point alu accesses (Count)
system.cpu.vecAluAccesses                           0                       # Number of vector alu accesses (Count)
system.cpu.numInsts                          20785290                       # Number of executed instructions (Count)
system.cpu.numLoadInsts                       4148454                       # Number of load instructions executed (Count)
system.cpu.numSquashedInsts                    725822                       # Number of squashed instructions skipped in execute (Count)
system.cpu.numSwp                                   0                       # Number of swp insts executed (Count)
system.cpu.numNop                                   0                       # Number of nop insts executed (Count)
system.cpu.numRefs                            5734291                       # Number of memory reference insts executed (Count)
system.cpu.numBranches                        1837699                       # Number of branches executed (Count)
system.cpu.numStoreInsts                      1585837                       # Number of stores executed (Count)
system.cpu.numRate                           2.319489                       # Inst execution rate ((Count/Cycle))
system.cpu.timesIdled                             528                       # Number of times that the entire CPU went into an idle state and unscheduled itself (Count)
system.cpu.idleCycles                           45619                       # Total number of cycles that the CPU has spent unscheduled due to idling (Cycle)
system.cpu.committedInsts                    10000004                       # Number of Instructions Simulated (Count)
system.cpu.committedOps                      18302657                       # Number of Ops (including micro ops) Simulated (Count)
system.cpu.cpi                               0.896115                       # CPI: Cycles Per Instruction ((Cycle/Count))
system.cpu.totalCpi                          0.896115                       # CPI: Total CPI of All Threads ((Cycle/Count))
system.cpu.ipc                               1.115928                       # IPC: Instructions Per Cycle ((Count/Cycle))
system.cpu.totalIpc                          1.115928                       # IPC: Total IPC of All Threads ((Count/Cycle))
system.cpu.intRegfileReads                   30169054                       # Number of integer regfile reads (Count)
system.cpu.intRegfileWrites                  17357128                       # Number of integer regfile writes (Count)
system.cpu.fpRegfileReads                     1563781                       # Number of floating regfile reads (Count)
system.cpu.fpRegfileWrites                    1654191                       # Number of floating regfile writes (Count)
system.cpu.ccRegfileReads                     8035367                       # number of cc regfile reads (Count)
system.cpu.ccRegfileWrites                    6024065                       # number of cc regfile writes (Count)
system.cpu.miscRegfileReads                  10009805                       # number of misc regfile reads (Count)
system.cpu.miscRegfileWrites                       81                       # number of misc regfile writes (Count)
system.cpu.MemDepUnit__0.insertedLoads        4853994                       # Number of loads inserted to the mem dependence unit. (Count)
system.cpu.MemDepUnit__0.insertedStores       2032361                       # Number of stores inserted to the mem dependence unit. (Count)
system.cpu.MemDepUnit__0.conflictingLoads      1532356                       # Number of conflicting loads. (Count)
system.cpu.MemDepUnit__0.conflictingStores       404228                       # Number of conflicting stores. (Count)
system.cpu.MemDepUnit__1.insertedLoads              0                       # Number of loads inserted to the mem dependence unit. (Count)
system.cpu.MemDepUnit__1.insertedStores             0                       # Number of stores inserted to the mem dependence unit. (Count)
system.cpu.MemDepUnit__1.conflictingLoads            0                       # Number of conflicting loads. (Count)
system.cpu.MemDepUnit__1.conflictingStores            0                       # Number of conflicting stores. (Count)
system.cpu.MemDepUnit__2.insertedLoads              0                       # Number of loads inserted to the mem dependence unit. (Count)
system.cpu.MemDepUnit__2.insertedStores             0                       # Number of stores inserted to the mem dependence unit. (Count)
system.cpu.MemDepUnit__2.conflictingLoads            0                       # Number of conflicting loads. (Count)
system.cpu.MemDepUnit__2.conflictingStores            0                       # Number of conflicting stores. (Count)
system.cpu.MemDepUnit__3.insertedLoads              0                       # Number of loads inserted to the mem dependence unit. (Count)
system.cpu.MemDepUnit__3.insertedStores             0                       # Number of stores inserted to the mem dependence unit. (Count)
system.cpu.MemDepUnit__3.conflictingLoads            0                       # Number of conflicting loads. (Count)
system.cpu.MemDepUnit__3.conflictingStores            0                       # Number of conflicting stores. (Count)
system.cpu.branchPred.lookups                 2890159                       # Number of BP lookups (Count)
system.cpu.branchPred.condPredicted           2249052                       # Number of conditional branches predicted (Count)
system.cpu.branchPred.condIncorrect             15625                       # Number of conditional branches incorrect (Count)
system.cpu.branchPred.BTBLookups              1413848                       # Number of BTB lookups (Count)
system.cpu.branchPred.BTBHits                 1407523                       # Number of BTB hits (Count)
system.cpu.branchPred.BTBHitRatio            0.995526                       # BTB Hit Ratio (Ratio)
system.cpu.branchPred.RASUsed                  281429                       # Number of times the RAS was used to get a target. (Count)
system.cpu.branchPred.RASIncorrect                  2                       # Number of incorrect RAS predictions. (Count)
system.cpu.branchPred.indirectLookups           27876                       # Number of indirect predictor lookups. (Count)
system.cpu.branchPred.indirectHits              26363                       # Number of indirect target hits. (Count)
system.cpu.branchPred.indirectMisses             1513                       # Number of indirect misses. (Count)
system.cpu.branchPred.indirectMispredicted          263                       # Number of mispredicted indirect branches. (Count)
system.cpu.commit.commitSquashedInsts         5607955                       # The number of squashed insts skipped by commit (Count)
system.cpu.commit.commitNonSpecStalls              81                       # The number of times commit has been forced to stall to communicate backwards (Count)
system.cpu.commit.branchMispredicts            254667                       # The number of times a branch was mispredicted (Count)
system.cpu.commit.numCommittedDist::samples      8065880                       # Number of insts commited each cycle (Count)
system.cpu.commit.numCommittedDist::mean     2.269146                       # Number of insts commited each cycle (Count)
system.cpu.commit.numCommittedDist::stdev     2.931056                       # Number of insts commited each cycle (Count)
system.cpu.commit.numCommittedDist::underflows            0      0.00%      0.00% # Number of insts commited each cycle (Count)
system.cpu.commit.numCommittedDist::0         2769434     34.34%     34.34% # Number of insts commited each cycle (Count)
system.cpu.commit.numCommittedDist::1         2473108     30.66%     65.00% # Number of insts commited each cycle (Count)
system.cpu.commit.numCommittedDist::2          585342      7.26%     72.25% # Number of insts commited each cycle (Count)
system.cpu.commit.numCommittedDist::3          504228      6.25%     78.50% # Number of insts commited each cycle (Count)
system.cpu.commit.numCommittedDist::4           38413      0.48%     78.98% # Number of insts commited each cycle (Count)
system.cpu.commit.numCommittedDist::5          123671      1.53%     80.51% # Number of insts commited each cycle (Count)
system.cpu.commit.numCommittedDist::6           84438      1.05%     81.56% # Number of insts commited each cycle (Count)
system.cpu.commit.numCommittedDist::7           30422      0.38%     81.94% # Number of insts commited each cycle (Count)
system.cpu.commit.numCommittedDist::8         1456824     18.06%    100.00% # Number of insts commited each cycle (Count)
system.cpu.commit.numCommittedDist::overflows            0      0.00%    100.00% # Number of insts commited each cycle (Count)
system.cpu.commit.numCommittedDist::min_value            0                       # Number of insts commited each cycle (Count)
system.cpu.commit.numCommittedDist::max_value            8                       # Number of insts commited each cycle (Count)
system.cpu.commit.numCommittedDist::total      8065880                       # Number of insts commited each cycle (Count)
system.cpu.commit.instsCommitted             10000004                       # Number of instructions committed (Count)
system.cpu.commit.opsCommitted               18302657                       # Number of ops (including micro ops) committed (Count)
system.cpu.commit.memRefs                     5353302                       # Number of memory references committed (Count)
system.cpu.commit.loads                       3810979                       # Number of loads committed (Count)
system.cpu.commit.amos                              0                       # Number of atomic instructions committed (Count)
system.cpu.commit.membars                           0                       # Number of memory barriers committed (Count)
system.cpu.commit.branches                    1789809                       # Number of branches committed (Count)
system.cpu.commit.vectorInstructions                0                       # Number of committed Vector instructions. (Count)
system.cpu.commit.floating                    1027108                       # Number of committed floating point instructions. (Count)
system.cpu.commit.integer                    17763302                       # Number of committed integer instructions. (Count)
system.cpu.commit.functionCalls                264186                       # Number of function calls committed. (Count)
system.cpu.commit.committedInstType_0::No_OpClass         6314      0.03%      0.03% # Class of committed instruction (Count)
system.cpu.commit.committedInstType_0::IntAlu     12356532     67.51%     67.55% # Class of committed instruction (Count)
system.cpu.commit.committedInstType_0::IntMult          163      0.00%     67.55% # Class of committed instruction (Count)
system.cpu.commit.committedInstType_0::IntDiv        22939      0.13%     67.67% # Class of committed instruction (Count)
system.cpu.commit.committedInstType_0::FloatAdd       241629      1.32%     68.99% # Class of committed instruction (Count)
system.cpu.commit.committedInstType_0::FloatCmp            0      0.00%     68.99% # Class of committed instruction (Count)
system.cpu.commit.committedInstType_0::FloatCvt          144      0.00%     68.99% # Class of committed instruction (Count)
system.cpu.commit.committedInstType_0::FloatMult            0      0.00%     68.99% # Class of committed instruction (Count)
system.cpu.commit.committedInstType_0::FloatMultAcc            0      0.00%     68.99% # Class of committed instruction (Count)
system.cpu.commit.committedInstType_0::FloatDiv            0      0.00%     68.99% # Class of committed instruction (Count)
system.cpu.commit.committedInstType_0::FloatMisc            0      0.00%     68.99% # Class of committed instruction (Count)
system.cpu.commit.committedInstType_0::FloatSqrt            0      0.00%     68.99% # Class of committed instruction (Count)
system.cpu.commit.committedInstType_0::SimdAdd            0      0.00%     68.99% # Class of committed instruction (Count)
system.cpu.commit.committedInstType_0::SimdAddAcc            0      0.00%     68.99% # Class of committed instruction (Count)
system.cpu.commit.committedInstType_0::SimdAlu            2      0.00%     68.99% # Class of committed instruction (Count)
system.cpu.commit.committedInstType_0::SimdCmp            0      0.00%     68.99% # Class of committed instruction (Count)
system.cpu.commit.committedInstType_0::SimdCvt           12      0.00%     68.99% # Class of committed instruction (Count)
system.cpu.commit.committedInstType_0::SimdMisc        40042      0.22%     69.21% # Class of committed instruction (Count)
system.cpu.commit.committedInstType_0::SimdMult            0      0.00%     69.21% # Class of committed instruction (Count)
system.cpu.commit.committedInstType_0::SimdMultAcc            0      0.00%     69.21% # Class of committed instruction (Count)
system.cpu.commit.committedInstType_0::SimdShift            0      0.00%     69.21% # Class of committed instruction (Count)
system.cpu.commit.committedInstType_0::SimdShiftAcc            0      0.00%     69.21% # Class of committed instruction (Count)
system.cpu.commit.committedInstType_0::SimdDiv            0      0.00%     69.21% # Class of committed instruction (Count)
system.cpu.commit.committedInstType_0::SimdSqrt            0      0.00%     69.21% # Class of committed instruction (Count)
system.cpu.commit.committedInstType_0::SimdFloatAdd            0      0.00%     69.21% # Class of committed instruction (Count)
system.cpu.commit.committedInstType_0::SimdFloatAlu            0      0.00%     69.21% # Class of committed instruction (Count)
system.cpu.commit.committedInstType_0::SimdFloatCmp            0      0.00%     69.21% # Class of committed instruction (Count)
system.cpu.commit.committedInstType_0::SimdFloatCvt       261555      1.43%     70.64% # Class of committed instruction (Count)
system.cpu.commit.committedInstType_0::SimdFloatDiv        20023      0.11%     70.75% # Class of committed instruction (Count)
system.cpu.commit.committedInstType_0::SimdFloatMisc            0      0.00%     70.75% # Class of committed instruction (Count)
system.cpu.commit.committedInstType_0::SimdFloatMult            0      0.00%     70.75% # Class of committed instruction (Count)
system.cpu.commit.committedInstType_0::SimdFloatMultAcc            0      0.00%     70.75% # Class of committed instruction (Count)
system.cpu.commit.committedInstType_0::SimdFloatSqrt            0      0.00%     70.75% # Class of committed instruction (Count)
system.cpu.commit.committedInstType_0::SimdReduceAdd            0      0.00%     70.75% # Class of committed instruction (Count)
system.cpu.commit.committedInstType_0::SimdReduceAlu            0      0.00%     70.75% # Class of committed instruction (Count)
system.cpu.commit.committedInstType_0::SimdReduceCmp            0      0.00%     70.75% # Class of committed instruction (Count)
system.cpu.commit.committedInstType_0::SimdFloatReduceAdd            0      0.00%     70.75% # Class of committed instruction (Count)
system.cpu.commit.committedInstType_0::SimdFloatReduceCmp            0      0.00%     70.75% # Class of committed instruction (Count)
system.cpu.commit.committedInstType_0::SimdAes            0      0.00%     70.75% # Class of committed instruction (Count)
system.cpu.commit.committedInstType_0::SimdAesMix            0      0.00%     70.75% # Class of committed instruction (Count)
system.cpu.commit.committedInstType_0::SimdSha1Hash            0      0.00%     70.75% # Class of committed instruction (Count)
system.cpu.commit.committedInstType_0::SimdSha1Hash2            0      0.00%     70.75% # Class of committed instruction (Count)
system.cpu.commit.committedInstType_0::SimdSha256Hash            0      0.00%     70.75% # Class of committed instruction (Count)
system.cpu.commit.committedInstType_0::SimdSha256Hash2            0      0.00%     70.75% # Class of committed instruction (Count)
system.cpu.commit.committedInstType_0::SimdShaSigma2            0      0.00%     70.75% # Class of committed instruction (Count)
system.cpu.commit.committedInstType_0::SimdShaSigma3            0      0.00%     70.75% # Class of committed instruction (Count)
system.cpu.commit.committedInstType_0::SimdPredAlu            0      0.00%     70.75% # Class of committed instruction (Count)
system.cpu.commit.committedInstType_0::MemRead      3347597     18.29%     89.04% # Class of committed instruction (Count)
system.cpu.commit.committedInstType_0::MemWrite      1542011      8.43%     97.47% # Class of committed instruction (Count)
system.cpu.commit.committedInstType_0::FloatMemRead       463382      2.53%    100.00% # Class of committed instruction (Count)
system.cpu.commit.committedInstType_0::FloatMemWrite          312      0.00%    100.00% # Class of committed instruction (Count)
system.cpu.commit.committedInstType_0::IprAccess            0      0.00%    100.00% # Class of committed instruction (Count)
system.cpu.commit.committedInstType_0::InstPrefetch            0      0.00%    100.00% # Class of committed instruction (Count)
system.cpu.commit.committedInstType_0::total     18302657                       # Class of committed instruction (Count)
system.cpu.commit.commitEligibleSamples       1456824                       # number cycles where commit BW limit reached (Cycle)
system.cpu.dcache.demandHits::cpu.data        4336369                       # number of demand (read+write) hits (Count)
system.cpu.dcache.demandHits::total           4336369                       # number of demand (read+write) hits (Count)
system.cpu.dcache.overallHits::cpu.data       4336369                       # number of overall hits (Count)
system.cpu.dcache.overallHits::total          4336369                       # number of overall hits (Count)
system.cpu.dcache.demandMisses::cpu.data        29727                       # number of demand (read+write) misses (Count)
system.cpu.dcache.demandMisses::total           29727                       # number of demand (read+write) misses (Count)
system.cpu.dcache.overallMisses::cpu.data        29727                       # number of overall misses (Count)
system.cpu.dcache.overallMisses::total          29727                       # number of overall misses (Count)
system.cpu.dcache.demandMissLatency::cpu.data   1798379476                       # number of demand (read+write) miss ticks (Tick)
system.cpu.dcache.demandMissLatency::total   1798379476                       # number of demand (read+write) miss ticks (Tick)
system.cpu.dcache.overallMissLatency::cpu.data   1798379476                       # number of overall miss ticks (Tick)
system.cpu.dcache.overallMissLatency::total   1798379476                       # number of overall miss ticks (Tick)
system.cpu.dcache.demandAccesses::cpu.data      4366096                       # number of demand (read+write) accesses (Count)
system.cpu.dcache.demandAccesses::total       4366096                       # number of demand (read+write) accesses (Count)
system.cpu.dcache.overallAccesses::cpu.data      4366096                       # number of overall (read+write) accesses (Count)
system.cpu.dcache.overallAccesses::total      4366096                       # number of overall (read+write) accesses (Count)
system.cpu.dcache.demandMissRate::cpu.data     0.006809                       # miss rate for demand accesses (Ratio)
system.cpu.dcache.demandMissRate::total      0.006809                       # miss rate for demand accesses (Ratio)
system.cpu.dcache.overallMissRate::cpu.data     0.006809                       # miss rate for overall accesses (Ratio)
system.cpu.dcache.overallMissRate::total     0.006809                       # miss rate for overall accesses (Ratio)
system.cpu.dcache.demandAvgMissLatency::cpu.data 60496.500690                       # average overall miss latency in ticks ((Tick/Count))
system.cpu.dcache.demandAvgMissLatency::total 60496.500690                       # average overall miss latency in ticks ((Tick/Count))
system.cpu.dcache.overallAvgMissLatency::cpu.data 60496.500690                       # average overall miss latency ((Tick/Count))
system.cpu.dcache.overallAvgMissLatency::total 60496.500690                       # average overall miss latency ((Tick/Count))
system.cpu.dcache.blockedCycles::no_mshrs        23391                       # number of cycles access was blocked (Cycle)
system.cpu.dcache.blockedCycles::no_targets         1243                       # number of cycles access was blocked (Cycle)
system.cpu.dcache.blockedCauses::no_mshrs          493                       # number of times access was blocked (Count)
system.cpu.dcache.blockedCauses::no_targets            8                       # number of times access was blocked (Count)
system.cpu.dcache.avgBlocked::no_mshrs      47.446247                       # average number of cycles each access was blocked ((Cycle/Count))
system.cpu.dcache.avgBlocked::no_targets   155.375000                       # average number of cycles each access was blocked ((Cycle/Count))
system.cpu.dcache.writebacks::writebacks         1656                       # number of writebacks (Count)
system.cpu.dcache.writebacks::total              1656                       # number of writebacks (Count)
system.cpu.dcache.demandMshrHits::cpu.data        19641                       # number of demand (read+write) MSHR hits (Count)
system.cpu.dcache.demandMshrHits::total         19641                       # number of demand (read+write) MSHR hits (Count)
system.cpu.dcache.overallMshrHits::cpu.data        19641                       # number of overall MSHR hits (Count)
system.cpu.dcache.overallMshrHits::total        19641                       # number of overall MSHR hits (Count)
system.cpu.dcache.demandMshrMisses::cpu.data        10086                       # number of demand (read+write) MSHR misses (Count)
system.cpu.dcache.demandMshrMisses::total        10086                       # number of demand (read+write) MSHR misses (Count)
system.cpu.dcache.overallMshrMisses::cpu.data        10086                       # number of overall MSHR misses (Count)
system.cpu.dcache.overallMshrMisses::total        10086                       # number of overall MSHR misses (Count)
system.cpu.dcache.demandMshrMissLatency::cpu.data    645000976                       # number of demand (read+write) MSHR miss ticks (Tick)
system.cpu.dcache.demandMshrMissLatency::total    645000976                       # number of demand (read+write) MSHR miss ticks (Tick)
system.cpu.dcache.overallMshrMissLatency::cpu.data    645000976                       # number of overall MSHR miss ticks (Tick)
system.cpu.dcache.overallMshrMissLatency::total    645000976                       # number of overall MSHR miss ticks (Tick)
system.cpu.dcache.demandMshrMissRate::cpu.data     0.002310                       # mshr miss ratio for demand accesses (Ratio)
system.cpu.dcache.demandMshrMissRate::total     0.002310                       # mshr miss ratio for demand accesses (Ratio)
system.cpu.dcache.overallMshrMissRate::cpu.data     0.002310                       # mshr miss ratio for overall accesses (Ratio)
system.cpu.dcache.overallMshrMissRate::total     0.002310                       # mshr miss ratio for overall accesses (Ratio)
system.cpu.dcache.demandAvgMshrMissLatency::cpu.data 63950.126512                       # average overall mshr miss latency ((Tick/Count))
system.cpu.dcache.demandAvgMshrMissLatency::total 63950.126512                       # average overall mshr miss latency ((Tick/Count))
system.cpu.dcache.overallAvgMshrMissLatency::cpu.data 63950.126512                       # average overall mshr miss latency ((Tick/Count))
system.cpu.dcache.overallAvgMshrMissLatency::total 63950.126512                       # average overall mshr miss latency ((Tick/Count))
system.cpu.dcache.replacements                   9061                       # number of replacements (Count)
system.cpu.dcache.ReadReq.hits::cpu.data      2796097                       # number of ReadReq hits (Count)
system.cpu.dcache.ReadReq.hits::total         2796097                       # number of ReadReq hits (Count)
system.cpu.dcache.ReadReq.misses::cpu.data        27671                       # number of ReadReq misses (Count)
system.cpu.dcache.ReadReq.misses::total         27671                       # number of ReadReq misses (Count)
system.cpu.dcache.ReadReq.missLatency::cpu.data   1679126500                       # number of ReadReq miss ticks (Tick)
system.cpu.dcache.ReadReq.missLatency::total   1679126500                       # number of ReadReq miss ticks (Tick)
system.cpu.dcache.ReadReq.accesses::cpu.data      2823768                       # number of ReadReq accesses(hits+misses) (Count)
system.cpu.dcache.ReadReq.accesses::total      2823768                       # number of ReadReq accesses(hits+misses) (Count)
system.cpu.dcache.ReadReq.missRate::cpu.data     0.009799                       # miss rate for ReadReq accesses (Ratio)
system.cpu.dcache.ReadReq.missRate::total     0.009799                       # miss rate for ReadReq accesses (Ratio)
system.cpu.dcache.ReadReq.avgMissLatency::cpu.data 60681.814896                       # average ReadReq miss latency ((Tick/Count))
system.cpu.dcache.ReadReq.avgMissLatency::total 60681.814896                       # average ReadReq miss latency ((Tick/Count))
system.cpu.dcache.ReadReq.mshrHits::cpu.data        19632                       # number of ReadReq MSHR hits (Count)
system.cpu.dcache.ReadReq.mshrHits::total        19632                       # number of ReadReq MSHR hits (Count)
system.cpu.dcache.ReadReq.mshrMisses::cpu.data         8039                       # number of ReadReq MSHR misses (Count)
system.cpu.dcache.ReadReq.mshrMisses::total         8039                       # number of ReadReq MSHR misses (Count)
system.cpu.dcache.ReadReq.mshrMissLatency::cpu.data    528191500                       # number of ReadReq MSHR miss ticks (Tick)
system.cpu.dcache.ReadReq.mshrMissLatency::total    528191500                       # number of ReadReq MSHR miss ticks (Tick)
system.cpu.dcache.ReadReq.mshrMissRate::cpu.data     0.002847                       # mshr miss rate for ReadReq accesses (Ratio)
system.cpu.dcache.ReadReq.mshrMissRate::total     0.002847                       # mshr miss rate for ReadReq accesses (Ratio)
system.cpu.dcache.ReadReq.avgMshrMissLatency::cpu.data 65703.632293                       # average ReadReq mshr miss latency ((Tick/Count))
system.cpu.dcache.ReadReq.avgMshrMissLatency::total 65703.632293                       # average ReadReq mshr miss latency ((Tick/Count))
system.cpu.dcache.WriteReq.hits::cpu.data      1540272                       # number of WriteReq hits (Count)
system.cpu.dcache.WriteReq.hits::total        1540272                       # number of WriteReq hits (Count)
system.cpu.dcache.WriteReq.misses::cpu.data         2056                       # number of WriteReq misses (Count)
system.cpu.dcache.WriteReq.misses::total         2056                       # number of WriteReq misses (Count)
system.cpu.dcache.WriteReq.missLatency::cpu.data    119252976                       # number of WriteReq miss ticks (Tick)
system.cpu.dcache.WriteReq.missLatency::total    119252976                       # number of WriteReq miss ticks (Tick)
system.cpu.dcache.WriteReq.accesses::cpu.data      1542328                       # number of WriteReq accesses(hits+misses) (Count)
system.cpu.dcache.WriteReq.accesses::total      1542328                       # number of WriteReq accesses(hits+misses) (Count)
system.cpu.dcache.WriteReq.missRate::cpu.data     0.001333                       # miss rate for WriteReq accesses (Ratio)
system.cpu.dcache.WriteReq.missRate::total     0.001333                       # miss rate for WriteReq accesses (Ratio)
system.cpu.dcache.WriteReq.avgMissLatency::cpu.data 58002.420233                       # average WriteReq miss latency ((Tick/Count))
system.cpu.dcache.WriteReq.avgMissLatency::total 58002.420233                       # average WriteReq miss latency ((Tick/Count))
system.cpu.dcache.WriteReq.mshrHits::cpu.data            9                       # number of WriteReq MSHR hits (Count)
system.cpu.dcache.WriteReq.mshrHits::total            9                       # number of WriteReq MSHR hits (Count)
system.cpu.dcache.WriteReq.mshrMisses::cpu.data         2047                       # number of WriteReq MSHR misses (Count)
system.cpu.dcache.WriteReq.mshrMisses::total         2047                       # number of WriteReq MSHR misses (Count)
system.cpu.dcache.WriteReq.mshrMissLatency::cpu.data    116809476                       # number of WriteReq MSHR miss ticks (Tick)
system.cpu.dcache.WriteReq.mshrMissLatency::total    116809476                       # number of WriteReq MSHR miss ticks (Tick)
system.cpu.dcache.WriteReq.mshrMissRate::cpu.data     0.001327                       # mshr miss rate for WriteReq accesses (Ratio)
system.cpu.dcache.WriteReq.mshrMissRate::total     0.001327                       # mshr miss rate for WriteReq accesses (Ratio)
system.cpu.dcache.WriteReq.avgMshrMissLatency::cpu.data 57063.740107                       # average WriteReq mshr miss latency ((Tick/Count))
system.cpu.dcache.WriteReq.avgMshrMissLatency::total 57063.740107                       # average WriteReq mshr miss latency ((Tick/Count))
system.cpu.dcache.power_state.pwrStateResidencyTicks::UNDEFINED   4480575500                       # Cumulative time (in ticks) in various power states (Tick)
system.cpu.dcache.tags.tagsInUse          1011.152086                       # Average ticks per tags in use ((Tick/Count))
system.cpu.dcache.tags.totalRefs              4346455                       # Total number of references to valid blocks. (Count)
system.cpu.dcache.tags.sampledRefs              10085                       # Sample count of references to valid blocks. (Count)
system.cpu.dcache.tags.avgRefs             430.982152                       # Average number of references to valid blocks. ((Count/Count))
system.cpu.dcache.tags.warmupTick              148000                       # The tick when the warmup percentage was hit. (Tick)
system.cpu.dcache.tags.occupancies::cpu.data  1011.152086                       # Average occupied blocks per tick, per requestor ((Count/Tick))
system.cpu.dcache.tags.avgOccs::cpu.data     0.987453                       # Average percentage of cache occupancy ((Ratio/Tick))
system.cpu.dcache.tags.avgOccs::total        0.987453                       # Average percentage of cache occupancy ((Ratio/Tick))
system.cpu.dcache.tags.occupanciesTaskId::1024         1024                       # Occupied blocks per task id (Count)
system.cpu.dcache.tags.ageTaskId_1024::1            3                       # Occupied blocks per task id, per block age (Count)
system.cpu.dcache.tags.ageTaskId_1024::3         1021                       # Occupied blocks per task id, per block age (Count)
system.cpu.dcache.tags.ratioOccsTaskId::1024            1                       # Ratio of occupied blocks and all blocks, per task id (Ratio)
system.cpu.dcache.tags.tagAccesses            8742277                       # Number of tag accesses (Count)
system.cpu.dcache.tags.dataAccesses           8742277                       # Number of data accesses (Count)
system.cpu.dcache.tags.power_state.pwrStateResidencyTicks::UNDEFINED   4480575500                       # Cumulative time (in ticks) in various power states (Tick)
system.cpu.decode.idleCycles                  2792127                       # Number of cycles decode is idle (Cycle)
system.cpu.decode.blockedCycles               1431168                       # Number of cycles decode is blocked (Cycle)
system.cpu.decode.runCycles                   4103769                       # Number of cycles decode is running (Cycle)
system.cpu.decode.unblockCycles                333410                       # Number of cycles decode is unblocking (Cycle)
system.cpu.decode.squashCycles                 255059                       # Number of cycles decode is squashing (Cycle)
system.cpu.decode.branchResolved              1387471                       # Number of times decode resolved a branch (Count)
system.cpu.decode.branchMispred                   524                       # Number of times decode detected a branch misprediction (Count)
system.cpu.decode.decodedInsts               27941864                       # Number of instructions handled by decode (Count)
system.cpu.decode.squashedInsts                  2438                       # Number of squashed instructions handled by decode (Count)
system.cpu.dtb_walker_cache.blockedCycles::no_mshrs            0                       # number of cycles access was blocked (Cycle)
system.cpu.dtb_walker_cache.blockedCycles::no_targets            0                       # number of cycles access was blocked (Cycle)
system.cpu.dtb_walker_cache.blockedCauses::no_mshrs            0                       # number of times access was blocked (Count)
system.cpu.dtb_walker_cache.blockedCauses::no_targets            0                       # number of times access was blocked (Count)
system.cpu.dtb_walker_cache.avgBlocked::no_mshrs          nan                       # average number of cycles each access was blocked ((Cycle/Count))
system.cpu.dtb_walker_cache.avgBlocked::no_targets          nan                       # average number of cycles each access was blocked ((Cycle/Count))
system.cpu.dtb_walker_cache.replacements            0                       # number of replacements (Count)
system.cpu.dtb_walker_cache.power_state.pwrStateResidencyTicks::UNDEFINED   4480575500                       # Cumulative time (in ticks) in various power states (Tick)
system.cpu.dtb_walker_cache.tags.tagsInUse            0                       # Average ticks per tags in use ((Tick/Count))
system.cpu.dtb_walker_cache.tags.totalRefs            0                       # Total number of references to valid blocks. (Count)
system.cpu.dtb_walker_cache.tags.sampledRefs            0                       # Sample count of references to valid blocks. (Count)
system.cpu.dtb_walker_cache.tags.avgRefs          nan                       # Average number of references to valid blocks. ((Count/Count))
system.cpu.dtb_walker_cache.tags.warmupTick            0                       # The tick when the warmup percentage was hit. (Tick)
system.cpu.dtb_walker_cache.tags.tagAccesses            0                       # Number of tag accesses (Count)
system.cpu.dtb_walker_cache.tags.dataAccesses            0                       # Number of data accesses (Count)
system.cpu.dtb_walker_cache.tags.power_state.pwrStateResidencyTicks::UNDEFINED   4480575500                       # Cumulative time (in ticks) in various power states (Tick)
system.cpu.fetch.icacheStallCycles            2856303                       # Number of cycles fetch is stalled on an Icache miss (Cycle)
system.cpu.fetch.insts                       15579752                       # Number of instructions fetch has processed (Count)
system.cpu.fetch.branches                     2890159                       # Number of branches that fetch encountered (Count)
system.cpu.fetch.predictedBranches            1715315                       # Number of branches that fetch has predicted taken (Count)
system.cpu.fetch.cycles                       5802470                       # Number of cycles fetch has run and was not squashing or blocked (Cycle)
system.cpu.fetch.squashCycles                  511118                       # Number of cycles fetch has spent squashing (Cycle)
system.cpu.fetch.miscStallCycles                  135                       # Number of cycles fetch has spent waiting on interrupts, or bad addresses, or out of MSHRs (Cycle)
system.cpu.fetch.pendingTrapStallCycles          1066                       # Number of stall cycles due to pending traps (Cycle)
system.cpu.fetch.cacheLines                   2819192                       # Number of cache lines fetched (Count)
system.cpu.fetch.icacheSquashes                206336                       # Number of outstanding Icache misses that were squashed (Count)
system.cpu.fetch.nisnDist::samples            8915533                       # Number of instructions fetched each cycle (Total) (Count)
system.cpu.fetch.nisnDist::mean              3.264917                       # Number of instructions fetched each cycle (Total) (Count)
system.cpu.fetch.nisnDist::stdev             3.337323                       # Number of instructions fetched each cycle (Total) (Count)
system.cpu.fetch.nisnDist::underflows               0      0.00%      0.00% # Number of instructions fetched each cycle (Total) (Count)
system.cpu.fetch.nisnDist::0                  3942984     44.23%     44.23% # Number of instructions fetched each cycle (Total) (Count)
system.cpu.fetch.nisnDist::1                    73756      0.83%     45.05% # Number of instructions fetched each cycle (Total) (Count)
system.cpu.fetch.nisnDist::2                   303674      3.41%     48.46% # Number of instructions fetched each cycle (Total) (Count)
system.cpu.fetch.nisnDist::3                   512055      5.74%     54.20% # Number of instructions fetched each cycle (Total) (Count)
system.cpu.fetch.nisnDist::4                   748223      8.39%     62.60% # Number of instructions fetched each cycle (Total) (Count)
system.cpu.fetch.nisnDist::5                   689369      7.73%     70.33% # Number of instructions fetched each cycle (Total) (Count)
system.cpu.fetch.nisnDist::6                   303567      3.40%     73.73% # Number of instructions fetched each cycle (Total) (Count)
system.cpu.fetch.nisnDist::7                   105170      1.18%     74.91% # Number of instructions fetched each cycle (Total) (Count)
system.cpu.fetch.nisnDist::8                  2236735     25.09%    100.00% # Number of instructions fetched each cycle (Total) (Count)
system.cpu.fetch.nisnDist::overflows                0      0.00%    100.00% # Number of instructions fetched each cycle (Total) (Count)
system.cpu.fetch.nisnDist::min_value                0                       # Number of instructions fetched each cycle (Total) (Count)
system.cpu.fetch.nisnDist::max_value                8                       # Number of instructions fetched each cycle (Total) (Count)
system.cpu.fetch.nisnDist::total              8915533                       # Number of instructions fetched each cycle (Total) (Count)
system.cpu.fetch.branchRate                  0.322521                       # Number of branch fetches per cycle (Ratio)
system.cpu.fetch.rate                        1.738588                       # Number of inst fetches per cycle ((Count/Cycle))
system.cpu.icache.demandHits::cpu.inst        2817789                       # number of demand (read+write) hits (Count)
system.cpu.icache.demandHits::total           2817789                       # number of demand (read+write) hits (Count)
system.cpu.icache.overallHits::cpu.inst       2817789                       # number of overall hits (Count)
system.cpu.icache.overallHits::total          2817789                       # number of overall hits (Count)
system.cpu.icache.demandMisses::cpu.inst         1403                       # number of demand (read+write) misses (Count)
system.cpu.icache.demandMisses::total            1403                       # number of demand (read+write) misses (Count)
system.cpu.icache.overallMisses::cpu.inst         1403                       # number of overall misses (Count)
system.cpu.icache.overallMisses::total           1403                       # number of overall misses (Count)
system.cpu.icache.demandMissLatency::cpu.inst     80028000                       # number of demand (read+write) miss ticks (Tick)
system.cpu.icache.demandMissLatency::total     80028000                       # number of demand (read+write) miss ticks (Tick)
system.cpu.icache.overallMissLatency::cpu.inst     80028000                       # number of overall miss ticks (Tick)
system.cpu.icache.overallMissLatency::total     80028000                       # number of overall miss ticks (Tick)
system.cpu.icache.demandAccesses::cpu.inst      2819192                       # number of demand (read+write) accesses (Count)
system.cpu.icache.demandAccesses::total       2819192                       # number of demand (read+write) accesses (Count)
system.cpu.icache.overallAccesses::cpu.inst      2819192                       # number of overall (read+write) accesses (Count)
system.cpu.icache.overallAccesses::total      2819192                       # number of overall (read+write) accesses (Count)
system.cpu.icache.demandMissRate::cpu.inst     0.000498                       # miss rate for demand accesses (Ratio)
system.cpu.icache.demandMissRate::total      0.000498                       # miss rate for demand accesses (Ratio)
system.cpu.icache.overallMissRate::cpu.inst     0.000498                       # miss rate for overall accesses (Ratio)
system.cpu.icache.overallMissRate::total     0.000498                       # miss rate for overall accesses (Ratio)
system.cpu.icache.demandAvgMissLatency::cpu.inst 57040.627227                       # average overall miss latency in ticks ((Tick/Count))
system.cpu.icache.demandAvgMissLatency::total 57040.627227                       # average overall miss latency in ticks ((Tick/Count))
system.cpu.icache.overallAvgMissLatency::cpu.inst 57040.627227                       # average overall miss latency ((Tick/Count))
system.cpu.icache.overallAvgMissLatency::total 57040.627227                       # average overall miss latency ((Tick/Count))
system.cpu.icache.blockedCycles::no_mshrs            0                       # number of cycles access was blocked (Cycle)
system.cpu.icache.blockedCycles::no_targets            0                       # number of cycles access was blocked (Cycle)
system.cpu.icache.blockedCauses::no_mshrs            0                       # number of times access was blocked (Count)
system.cpu.icache.blockedCauses::no_targets            0                       # number of times access was blocked (Count)
system.cpu.icache.avgBlocked::no_mshrs            nan                       # average number of cycles each access was blocked ((Cycle/Count))
system.cpu.icache.avgBlocked::no_targets          nan                       # average number of cycles each access was blocked ((Cycle/Count))
system.cpu.icache.writebacks::writebacks          361                       # number of writebacks (Count)
system.cpu.icache.writebacks::total               361                       # number of writebacks (Count)
system.cpu.icache.demandMshrHits::cpu.inst          563                       # number of demand (read+write) MSHR hits (Count)
system.cpu.icache.demandMshrHits::total           563                       # number of demand (read+write) MSHR hits (Count)
system.cpu.icache.overallMshrHits::cpu.inst          563                       # number of overall MSHR hits (Count)
system.cpu.icache.overallMshrHits::total          563                       # number of overall MSHR hits (Count)
system.cpu.icache.demandMshrMisses::cpu.inst          840                       # number of demand (read+write) MSHR misses (Count)
system.cpu.icache.demandMshrMisses::total          840                       # number of demand (read+write) MSHR misses (Count)
system.cpu.icache.overallMshrMisses::cpu.inst          840                       # number of overall MSHR misses (Count)
system.cpu.icache.overallMshrMisses::total          840                       # number of overall MSHR misses (Count)
system.cpu.icache.demandMshrMissLatency::cpu.inst     51832500                       # number of demand (read+write) MSHR miss ticks (Tick)
system.cpu.icache.demandMshrMissLatency::total     51832500                       # number of demand (read+write) MSHR miss ticks (Tick)
system.cpu.icache.overallMshrMissLatency::cpu.inst     51832500                       # number of overall MSHR miss ticks (Tick)
system.cpu.icache.overallMshrMissLatency::total     51832500                       # number of overall MSHR miss ticks (Tick)
system.cpu.icache.demandMshrMissRate::cpu.inst     0.000298                       # mshr miss ratio for demand accesses (Ratio)
system.cpu.icache.demandMshrMissRate::total     0.000298                       # mshr miss ratio for demand accesses (Ratio)
system.cpu.icache.overallMshrMissRate::cpu.inst     0.000298                       # mshr miss ratio for overall accesses (Ratio)
system.cpu.icache.overallMshrMissRate::total     0.000298                       # mshr miss ratio for overall accesses (Ratio)
system.cpu.icache.demandAvgMshrMissLatency::cpu.inst 61705.357143                       # average overall mshr miss latency ((Tick/Count))
system.cpu.icache.demandAvgMshrMissLatency::total 61705.357143                       # average overall mshr miss latency ((Tick/Count))
system.cpu.icache.overallAvgMshrMissLatency::cpu.inst 61705.357143                       # average overall mshr miss latency ((Tick/Count))
system.cpu.icache.overallAvgMshrMissLatency::total 61705.357143                       # average overall mshr miss latency ((Tick/Count))
system.cpu.icache.replacements                    361                       # number of replacements (Count)
system.cpu.icache.ReadReq.hits::cpu.inst      2817789                       # number of ReadReq hits (Count)
system.cpu.icache.ReadReq.hits::total         2817789                       # number of ReadReq hits (Count)
system.cpu.icache.ReadReq.misses::cpu.inst         1403                       # number of ReadReq misses (Count)
system.cpu.icache.ReadReq.misses::total          1403                       # number of ReadReq misses (Count)
system.cpu.icache.ReadReq.missLatency::cpu.inst     80028000                       # number of ReadReq miss ticks (Tick)
system.cpu.icache.ReadReq.missLatency::total     80028000                       # number of ReadReq miss ticks (Tick)
system.cpu.icache.ReadReq.accesses::cpu.inst      2819192                       # number of ReadReq accesses(hits+misses) (Count)
system.cpu.icache.ReadReq.accesses::total      2819192                       # number of ReadReq accesses(hits+misses) (Count)
system.cpu.icache.ReadReq.missRate::cpu.inst     0.000498                       # miss rate for ReadReq accesses (Ratio)
system.cpu.icache.ReadReq.missRate::total     0.000498                       # miss rate for ReadReq accesses (Ratio)
system.cpu.icache.ReadReq.avgMissLatency::cpu.inst 57040.627227                       # average ReadReq miss latency ((Tick/Count))
system.cpu.icache.ReadReq.avgMissLatency::total 57040.627227                       # average ReadReq miss latency ((Tick/Count))
system.cpu.icache.ReadReq.mshrHits::cpu.inst          563                       # number of ReadReq MSHR hits (Count)
system.cpu.icache.ReadReq.mshrHits::total          563                       # number of ReadReq MSHR hits (Count)
system.cpu.icache.ReadReq.mshrMisses::cpu.inst          840                       # number of ReadReq MSHR misses (Count)
system.cpu.icache.ReadReq.mshrMisses::total          840                       # number of ReadReq MSHR misses (Count)
system.cpu.icache.ReadReq.mshrMissLatency::cpu.inst     51832500                       # number of ReadReq MSHR miss ticks (Tick)
system.cpu.icache.ReadReq.mshrMissLatency::total     51832500                       # number of ReadReq MSHR miss ticks (Tick)
system.cpu.icache.ReadReq.mshrMissRate::cpu.inst     0.000298                       # mshr miss rate for ReadReq accesses (Ratio)
system.cpu.icache.ReadReq.mshrMissRate::total     0.000298                       # mshr miss rate for ReadReq accesses (Ratio)
system.cpu.icache.ReadReq.avgMshrMissLatency::cpu.inst 61705.357143                       # average ReadReq mshr miss latency ((Tick/Count))
system.cpu.icache.ReadReq.avgMshrMissLatency::total 61705.357143                       # average ReadReq mshr miss latency ((Tick/Count))
system.cpu.icache.power_state.pwrStateResidencyTicks::UNDEFINED   4480575500                       # Cumulative time (in ticks) in various power states (Tick)
system.cpu.icache.tags.tagsInUse           472.431008                       # Average ticks per tags in use ((Tick/Count))
system.cpu.icache.tags.totalRefs              2818629                       # Total number of references to valid blocks. (Count)
system.cpu.icache.tags.sampledRefs                840                       # Sample count of references to valid blocks. (Count)
system.cpu.icache.tags.avgRefs            3355.510714                       # Average number of references to valid blocks. ((Count/Count))
system.cpu.icache.tags.warmupTick               77000                       # The tick when the warmup percentage was hit. (Tick)
system.cpu.icache.tags.occupancies::cpu.inst   472.431008                       # Average occupied blocks per tick, per requestor ((Count/Tick))
system.cpu.icache.tags.avgOccs::cpu.inst     0.922717                       # Average percentage of cache occupancy ((Ratio/Tick))
system.cpu.icache.tags.avgOccs::total        0.922717                       # Average percentage of cache occupancy ((Ratio/Tick))
system.cpu.icache.tags.occupanciesTaskId::1024          479                       # Occupied blocks per task id (Count)
system.cpu.icache.tags.ageTaskId_1024::3          479                       # Occupied blocks per task id, per block age (Count)
system.cpu.icache.tags.ratioOccsTaskId::1024     0.935547                       # Ratio of occupied blocks and all blocks, per task id (Ratio)
system.cpu.icache.tags.tagAccesses            5639224                       # Number of tag accesses (Count)
system.cpu.icache.tags.dataAccesses           5639224                       # Number of data accesses (Count)
system.cpu.icache.tags.power_state.pwrStateResidencyTicks::UNDEFINED   4480575500                       # Cumulative time (in ticks) in various power states (Tick)
system.cpu.iew.idleCycles                           0                       # Number of cycles IEW is idle (Cycle)
system.cpu.iew.squashCycles                    255059                       # Number of cycles IEW is squashing (Cycle)
system.cpu.iew.blockCycles                     959289                       # Number of cycles IEW is blocking (Cycle)
system.cpu.iew.unblockCycles                    11705                       # Number of cycles IEW is unblocking (Cycle)
system.cpu.iew.dispatchedInsts               23916416                       # Number of instructions dispatched to IQ (Count)
system.cpu.iew.dispSquashedInsts                 4139                       # Number of squashed instructions skipped by dispatch (Count)
system.cpu.iew.dispLoadInsts                  4853994                       # Number of dispatched load instructions (Count)
system.cpu.iew.dispStoreInsts                 2032361                       # Number of dispatched store instructions (Count)
system.cpu.iew.dispNonSpecInsts                   125                       # Number of dispatched non-speculative instructions (Count)
system.cpu.iew.iqFullEvents                      2393                       # Number of times the IQ has become full, causing a stall (Count)
system.cpu.iew.lsqFullEvents                     6314                       # Number of times the LSQ has become full, causing a stall (Count)
system.cpu.iew.memOrderViolationEvents            160                       # Number of memory order violations (Count)
system.cpu.iew.predictedTakenIncorrect           8409                       # Number of branches that were predicted taken incorrectly (Count)
system.cpu.iew.predictedNotTakenIncorrect         7861                       # Number of branches that were predicted not taken incorrectly (Count)
system.cpu.iew.branchMispredicts                16270                       # Number of branch mispredicts detected at execute (Count)
system.cpu.iew.mispredictedLVP                 243583                       # mispredictedLVP (Count)
system.cpu.iew.LvpCorrect                     2623739                       # LvpCorrect (Count)
system.cpu.iew.instsToCommit                 20556954                       # Cumulative count of insts sent to commit (Count)
system.cpu.iew.writebackCount                20541678                       # Cumulative count of insts written-back (Count)
system.cpu.iew.producerInst                  15466005                       # Number of instructions producing a value (Count)
system.cpu.iew.consumerInst                  24718974                       # Number of instructions consuming a value (Count)
system.cpu.iew.wbRate                        2.292303                       # Insts written-back per cycle ((Count/Cycle))
system.cpu.iew.wbFanout                      0.625673                       # Average fanout of values written-back ((Count/Count))
system.cpu.interrupts.clk_domain.clock           8000                       # Clock period in ticks (Tick)
system.cpu.itb_walker_cache.blockedCycles::no_mshrs            0                       # number of cycles access was blocked (Cycle)
system.cpu.itb_walker_cache.blockedCycles::no_targets            0                       # number of cycles access was blocked (Cycle)
system.cpu.itb_walker_cache.blockedCauses::no_mshrs            0                       # number of times access was blocked (Count)
system.cpu.itb_walker_cache.blockedCauses::no_targets            0                       # number of times access was blocked (Count)
system.cpu.itb_walker_cache.avgBlocked::no_mshrs          nan                       # average number of cycles each access was blocked ((Cycle/Count))
system.cpu.itb_walker_cache.avgBlocked::no_targets          nan                       # average number of cycles each access was blocked ((Cycle/Count))
system.cpu.itb_walker_cache.replacements            0                       # number of replacements (Count)
system.cpu.itb_walker_cache.power_state.pwrStateResidencyTicks::UNDEFINED   4480575500                       # Cumulative time (in ticks) in various power states (Tick)
system.cpu.itb_walker_cache.tags.tagsInUse            0                       # Average ticks per tags in use ((Tick/Count))
system.cpu.itb_walker_cache.tags.totalRefs            0                       # Total number of references to valid blocks. (Count)
system.cpu.itb_walker_cache.tags.sampledRefs            0                       # Sample count of references to valid blocks. (Count)
system.cpu.itb_walker_cache.tags.avgRefs          nan                       # Average number of references to valid blocks. ((Count/Count))
system.cpu.itb_walker_cache.tags.warmupTick            0                       # The tick when the warmup percentage was hit. (Tick)
system.cpu.itb_walker_cache.tags.tagAccesses            0                       # Number of tag accesses (Count)
system.cpu.itb_walker_cache.tags.dataAccesses            0                       # Number of data accesses (Count)
system.cpu.itb_walker_cache.tags.power_state.pwrStateResidencyTicks::UNDEFINED   4480575500                       # Cumulative time (in ticks) in various power states (Tick)
system.cpu.lsq0.forwLoads                     1320644                       # Number of loads that had data forwarded from stores (Count)
system.cpu.lsq0.squashedLoads                 1043008                       # Number of loads squashed (Count)
system.cpu.lsq0.ignoredResponses                  361                       # Number of memory responses ignored because the instruction is squashed (Count)
system.cpu.lsq0.memOrderViolation                 160                       # Number of memory ordering violations (Count)
system.cpu.lsq0.squashedStores                 490034                       # Number of stores squashed (Count)
system.cpu.lsq0.rescheduledLoads                    0                       # Number of loads that were rescheduled (Count)
system.cpu.lsq0.blockedByCache                    447                       # Number of times an access to memory failed due to the cache being blocked (Count)
system.cpu.lsq0.loadToUse::samples            3810977                       # Distribution of cycle latency between the first time a load is issued and its completion (Unspecified)
system.cpu.lsq0.loadToUse::mean              3.464460                       # Distribution of cycle latency between the first time a load is issued and its completion (Unspecified)
system.cpu.lsq0.loadToUse::stdev            10.451163                       # Distribution of cycle latency between the first time a load is issued and its completion (Unspecified)
system.cpu.lsq0.loadToUse::0-9                3790204     99.45%     99.45% # Distribution of cycle latency between the first time a load is issued and its completion (Unspecified)
system.cpu.lsq0.loadToUse::10-19                  429      0.01%     99.47% # Distribution of cycle latency between the first time a load is issued and its completion (Unspecified)
system.cpu.lsq0.loadToUse::20-29                  197      0.01%     99.47% # Distribution of cycle latency between the first time a load is issued and its completion (Unspecified)
system.cpu.lsq0.loadToUse::30-39                   67      0.00%     99.47% # Distribution of cycle latency between the first time a load is issued and its completion (Unspecified)
system.cpu.lsq0.loadToUse::40-49                  146      0.00%     99.48% # Distribution of cycle latency between the first time a load is issued and its completion (Unspecified)
system.cpu.lsq0.loadToUse::50-59                   91      0.00%     99.48% # Distribution of cycle latency between the first time a load is issued and its completion (Unspecified)
system.cpu.lsq0.loadToUse::60-69                  144      0.00%     99.48% # Distribution of cycle latency between the first time a load is issued and its completion (Unspecified)
system.cpu.lsq0.loadToUse::70-79                  815      0.02%     99.50% # Distribution of cycle latency between the first time a load is issued and its completion (Unspecified)
system.cpu.lsq0.loadToUse::80-89                  827      0.02%     99.53% # Distribution of cycle latency between the first time a load is issued and its completion (Unspecified)
system.cpu.lsq0.loadToUse::90-99                 1115      0.03%     99.56% # Distribution of cycle latency between the first time a load is issued and its completion (Unspecified)
[...]
system.mem_ctrls.dram.perBankWrBursts::2           87                       # Per bank write bursts (Count)
system.mem_ctrls.dram.perBankWrBursts::3          122                       # Per bank write bursts (Count)
system.mem_ctrls.dram.perBankWrBursts::4          129                       # Per bank write bursts (Count)
system.mem_ctrls.dram.perBankWrBursts::5          151                       # Per bank write bursts (Count)
system.mem_ctrls.dram.perBankWrBursts::6            5                       # Per bank write bursts (Count)
system.mem_ctrls.dram.perBankWrBursts::7           15                       # Per bank write bursts (Count)
system.mem_ctrls.dram.perBankWrBursts::8           54                       # Per bank write bursts (Count)
system.mem_ctrls.dram.perBankWrBursts::9           72                       # Per bank write bursts (Count)
system.mem_ctrls.dram.perBankWrBursts::10           70                       # Per bank write bursts (Count)
system.mem_ctrls.dram.perBankWrBursts::11           66                       # Per bank write bursts (Count)
system.mem_ctrls.dram.perBankWrBursts::12          185                       # Per bank write bursts (Count)
system.mem_ctrls.dram.perBankWrBursts::13          167                       # Per bank write bursts (Count)
system.mem_ctrls.dram.perBankWrBursts::14          108                       # Per bank write bursts (Count)
system.mem_ctrls.dram.perBankWrBursts::15          191                       # Per bank write bursts (Count)
system.mem_ctrls.dram.totQLat               149846250                       # Total ticks spent queuing (Tick)
system.mem_ctrls.dram.totBusLat              53785000                       # Total ticks spent in databus transfers (Tick)
system.mem_ctrls.dram.totMemAccLat          351540000                       # Total ticks spent from burst creation until serviced by the DRAM (Tick)
system.mem_ctrls.dram.avgQLat                13930.12                       # Average queueing delay per DRAM burst ((Tick/Count))
system.mem_ctrls.dram.avgBusLat               5000.00                       # Average bus latency per DRAM burst ((Tick/Count))
system.mem_ctrls.dram.avgMemAccLat           32680.12                       # Average memory access latency per DRAM burst ((Tick/Count))
system.mem_ctrls.dram.readRowHits                7139                       # Number of row buffer hits during reads (Count)
system.mem_ctrls.dram.writeRowHits               1516                       # Number of row buffer hits during writes (Count)
system.mem_ctrls.dram.readRowHitRate            66.37                       # Row buffer hit rate for reads (Ratio)
system.mem_ctrls.dram.writeRowHitRate           79.33                       # Row buffer hit rate for writes (Ratio)
system.mem_ctrls.dram.bytesPerActivate::samples         4013                       # Bytes accessed per row activation (Byte)
system.mem_ctrls.dram.bytesPerActivate::mean   202.031398                       # Bytes accessed per row activation (Byte)
system.mem_ctrls.dram.bytesPerActivate::gmean   133.413298                       # Bytes accessed per row activation (Byte)
system.mem_ctrls.dram.bytesPerActivate::stdev   232.229207                       # Bytes accessed per row activation (Byte)
system.mem_ctrls.dram.bytesPerActivate::0-127         1795     44.73%     44.73% # Bytes accessed per row activation (Byte)
system.mem_ctrls.dram.bytesPerActivate::128-255         1226     30.55%     75.28% # Bytes accessed per row activation (Byte)
system.mem_ctrls.dram.bytesPerActivate::256-383          408     10.17%     85.45% # Bytes accessed per row activation (Byte)
system.mem_ctrls.dram.bytesPerActivate::384-511          187      4.66%     90.11% # Bytes accessed per row activation (Byte)
system.mem_ctrls.dram.bytesPerActivate::512-639           91      2.27%     92.37% # Bytes accessed per row activation (Byte)
system.mem_ctrls.dram.bytesPerActivate::640-767           72      1.79%     94.17% # Bytes accessed per row activation (Byte)
system.mem_ctrls.dram.bytesPerActivate::768-895           40      1.00%     95.17% # Bytes accessed per row activation (Byte)
system.mem_ctrls.dram.bytesPerActivate::896-1023           30      0.75%     95.91% # Bytes accessed per row activation (Byte)
system.mem_ctrls.dram.bytesPerActivate::1024-1151          164      4.09%    100.00% # Bytes accessed per row activation (Byte)
system.mem_ctrls.dram.bytesPerActivate::total         4013                       # Bytes accessed per row activation (Byte)
system.mem_ctrls.dram.bytesRead                688448                       # Total bytes read (Byte)
system.mem_ctrls.dram.bytesWritten             122304                       # Total bytes written (Byte)
system.mem_ctrls.dram.avgRdBW              153.651691                       # Average DRAM read bandwidth in MiBytes/s ((Byte/Second))
system.mem_ctrls.dram.avgWrBW               27.296493                       # Average DRAM write bandwidth in MiBytes/s ((Byte/Second))
system.mem_ctrls.dram.peakBW                 12800.00                       # Theoretical peak bandwidth in MiByte/s ((Byte/Second))
system.mem_ctrls.dram.busUtil                    1.41                       # Data bus utilization in percentage (Ratio)
system.mem_ctrls.dram.busUtilRead                1.20                       # Data bus utilization in percentage for reads (Ratio)
system.mem_ctrls.dram.busUtilWrite               0.21                       # Data bus utilization in percentage for writes (Ratio)
system.mem_ctrls.dram.pageHitRate               68.32                       # Row buffer hit rate, read and write combined (Ratio)
system.mem_ctrls.dram.power_state.pwrStateResidencyTicks::UNDEFINED   4480575500                       # Cumulative time (in ticks) in various power states (Tick)
system.mem_ctrls.dram.rank0.actEnergy        14487060                       # Energy for activate commands per rank (pJ) (Joule)
system.mem_ctrls.dram.rank0.preEnergy         7700055                       # Energy for precharge commands per rank (pJ) (Joule)
system.mem_ctrls.dram.rank0.readEnergy       42590100                       # Energy for read commands per rank (pJ) (Joule)
system.mem_ctrls.dram.rank0.writeEnergy       5209560                       # Energy for write commands per rank (pJ) (Joule)
system.mem_ctrls.dram.rank0.refreshEnergy 353418000.000000                       # Energy for refresh commands per rank (pJ) (Joule)
system.mem_ctrls.dram.rank0.actBackEnergy    537353250                       # Energy for active background per rank (pJ) (Joule)
system.mem_ctrls.dram.rank0.preBackEnergy   1268033280                       # Energy for precharge background per rank (pJ) (Joule)
system.mem_ctrls.dram.rank0.actPowerDownEnergy            0                       # Energy for active power-down per rank (pJ) (Joule)
system.mem_ctrls.dram.rank0.prePowerDownEnergy            0                       # Energy for precharge power-down per rank (pJ) (Joule)
system.mem_ctrls.dram.rank0.selfRefreshEnergy            0                       # Energy for self refresh per rank (pJ) (Joule)
system.mem_ctrls.dram.rank0.totalEnergy    2228791305                       # Total energy per rank (pJ) (Joule)
system.mem_ctrls.dram.rank0.averagePower   497.434159                       # Core power per rank (mW) (Watt)
system.mem_ctrls.dram.rank0.totalIdleTime            0                       # Total Idle time Per DRAM Rank (Tick)
system.mem_ctrls.dram.rank0.pwrStateTime::IDLE   3291844250                       # Time in different power states (Tick)
system.mem_ctrls.dram.rank0.pwrStateTime::REF    149500000                       # Time in different power states (Tick)
system.mem_ctrls.dram.rank0.pwrStateTime::SREF            0                       # Time in different power states (Tick)
system.mem_ctrls.dram.rank0.pwrStateTime::PRE_PDN            0                       # Time in different power states (Tick)
system.mem_ctrls.dram.rank0.pwrStateTime::ACT   1039231250                       # Time in different power states (Tick)
system.mem_ctrls.dram.rank0.pwrStateTime::ACT_PDN            0                       # Time in different power states (Tick)
system.mem_ctrls.dram.rank1.actEnergy        14165760                       # Energy for activate commands per rank (pJ) (Joule)
system.mem_ctrls.dram.rank1.preEnergy         7529280                       # Energy for precharge commands per rank (pJ) (Joule)
system.mem_ctrls.dram.rank1.readEnergy       34214880                       # Energy for read commands per rank (pJ) (Joule)
system.mem_ctrls.dram.rank1.writeEnergy       4765860                       # Energy for write commands per rank (pJ) (Joule)
system.mem_ctrls.dram.rank1.refreshEnergy 353418000.000000                       # Energy for refresh commands per rank (pJ) (Joule)
system.mem_ctrls.dram.rank1.actBackEnergy    456786030                       # Energy for active background per rank (pJ) (Joule)
system.mem_ctrls.dram.rank1.preBackEnergy   1335879360                       # Energy for precharge background per rank (pJ) (Joule)
system.mem_ctrls.dram.rank1.actPowerDownEnergy            0                       # Energy for active power-down per rank (pJ) (Joule)
system.mem_ctrls.dram.rank1.prePowerDownEnergy            0                       # Energy for precharge power-down per rank (pJ) (Joule)
system.mem_ctrls.dram.rank1.selfRefreshEnergy            0                       # Energy for self refresh per rank (pJ) (Joule)
system.mem_ctrls.dram.rank1.totalEnergy    2206759170                       # Total energy per rank (pJ) (Joule)
system.mem_ctrls.dram.rank1.averagePower   492.516903                       # Core power per rank (mW) (Watt)
system.mem_ctrls.dram.rank1.totalIdleTime            0                       # Total Idle time Per DRAM Rank (Tick)
system.mem_ctrls.dram.rank1.pwrStateTime::IDLE   3469014250                       # Time in different power states (Tick)
system.mem_ctrls.dram.rank1.pwrStateTime::REF    149500000                       # Time in different power states (Tick)
system.mem_ctrls.dram.rank1.pwrStateTime::SREF            0                       # Time in different power states (Tick)
system.mem_ctrls.dram.rank1.pwrStateTime::PRE_PDN            0                       # Time in different power states (Tick)
system.mem_ctrls.dram.rank1.pwrStateTime::ACT    862061250                       # Time in different power states (Tick)
system.mem_ctrls.dram.rank1.pwrStateTime::ACT_PDN            0                       # Time in different power states (Tick)
system.mem_ctrls.power_state.pwrStateResidencyTicks::UNDEFINED   4480575500                       # Cumulative time (in ticks) in various power states (Tick)
system.membus.transDist::ReadResp                8879                       # Transaction distribution (Count)
system.membus.transDist::WritebackDirty          1656                       # Transaction distribution (Count)
system.membus.transDist::WritebackClean           361                       # Transaction distribution (Count)
system.membus.transDist::CleanEvict              7405                       # Transaction distribution (Count)
system.membus.transDist::UpgradeReq                 1                       # Transaction distribution (Count)
system.membus.transDist::ReadExReq               2046                       # Transaction distribution (Count)
system.membus.transDist::ReadExResp              2046                       # Transaction distribution (Count)
system.membus.transDist::ReadCleanReq             840                       # Transaction distribution (Count)
system.membus.transDist::ReadSharedReq           8039                       # Transaction distribution (Count)
system.membus.pktCount_system.cpu.icache.mem_side_port::system.mem_ctrls.port         2040                       # Packet count per connected requestor and responder (Count)
system.membus.pktCount_system.cpu.icache.mem_side_port::total         2040                       # Packet count per connected requestor and responder (Count)
system.membus.pktCount_system.cpu.dcache.mem_side_port::system.mem_ctrls.port        29232                       # Packet count per connected requestor and responder (Count)
system.membus.pktCount_system.cpu.dcache.mem_side_port::total        29232                       # Packet count per connected requestor and responder (Count)
system.membus.pktCount::total                   31272                       # Packet count per connected requestor and responder (Count)
system.membus.pktSize_system.cpu.icache.mem_side_port::system.mem_ctrls.port        76800                       # Cumulative packet size per connected requestor and responder (Byte)
system.membus.pktSize_system.cpu.icache.mem_side_port::total        76800                       # Cumulative packet size per connected requestor and responder (Byte)
system.membus.pktSize_system.cpu.dcache.mem_side_port::system.mem_ctrls.port       751424                       # Cumulative packet size per connected requestor and responder (Byte)
system.membus.pktSize_system.cpu.dcache.mem_side_port::total       751424                       # Cumulative packet size per connected requestor and responder (Byte)
system.membus.pktSize::total                   828224                       # Cumulative packet size per connected requestor and responder (Byte)
system.membus.snoops                                1                       # Total snoops (Count)
system.membus.snoopTraffic                         64                       # Total snoop traffic (Byte)
system.membus.snoopFanout::samples              10926                       # Request fanout histogram (Count)
system.membus.snoopFanout::mean              0.000549                       # Request fanout histogram (Count)
system.membus.snoopFanout::stdev             0.023429                       # Request fanout histogram (Count)
system.membus.snoopFanout::underflows               0      0.00%      0.00% # Request fanout histogram (Count)
system.membus.snoopFanout::0                    10920     99.95%     99.95% # Request fanout histogram (Count)
system.membus.snoopFanout::1                        6      0.05%    100.00% # Request fanout histogram (Count)
system.membus.snoopFanout::2                        0      0.00%    100.00% # Request fanout histogram (Count)
system.membus.snoopFanout::3                        0      0.00%    100.00% # Request fanout histogram (Count)
system.membus.snoopFanout::4                        0      0.00%    100.00% # Request fanout histogram (Count)
system.membus.snoopFanout::overflows                0      0.00%    100.00% # Request fanout histogram (Count)
system.membus.snoopFanout::min_value                0                       # Request fanout histogram (Count)
system.membus.snoopFanout::max_value                1                       # Request fanout histogram (Count)
system.membus.snoopFanout::total                10926                       # Request fanout histogram (Count)
system.membus.power_state.pwrStateResidencyTicks::UNDEFINED   4480575500                       # Cumulative time (in ticks) in various power states (Tick)
system.membus.reqLayer2.occupancy            30693500                       # Layer occupancy (ticks) (Tick)
system.membus.reqLayer2.utilization               0.0                       # Layer utilization (Ratio)
system.membus.respLayer1.occupancy            4456250                       # Layer occupancy (ticks) (Tick)
system.membus.respLayer1.utilization              0.0                       # Layer utilization (Ratio)
system.membus.respLayer2.occupancy           54074750                       # Layer occupancy (ticks) (Tick)
system.membus.respLayer2.utilization              0.0                       # Layer utilization (Ratio)
system.membus.snoop_filter.totRequests          20348                       # Total number of requests made to the snoop filter. (Count)
system.membus.snoop_filter.hitSingleRequests         9424                       # Number of requests hitting in the snoop filter with a single holder of the requested data. (Count)
system.membus.snoop_filter.hitMultiRequests            5                       # Number of requests hitting in the snoop filter with multiple (>1) holders of the requested data. (Count)
system.membus.snoop_filter.totSnoops                0                       # Total number of snoops made to the snoop filter. (Count)
system.membus.snoop_filter.hitSingleSnoops            0                       # Number of snoops hitting in the snoop filter with a single holder of the requested data. (Count)
system.membus.snoop_filter.hitMultiSnoops            0                       # Number of snoops hitting in the snoop filter with multiple (>1) holders of the requested data. (Count)
system.voltage_domain.voltage                       1                       # Voltage in Volts (Volt)
system.workload.inst.arm                            0                       # number of arm instructions executed (Count)
system.workload.inst.quiesce                        0                       # number of quiesce instructions executed (Count)
system.cpu.loadValPred.constant_verification_unit.constLoadHits      1483972                       # Number of loads marked constant that hit in the CVU CAM (Unspecified)
system.cpu.loadValPred.constant_verification_unit.constLoadMisses       653463                       # Number of loads marked constant that missed in the CVU CAM (Unspecified)
system.cpu.loadValPred.constant_verification_unit.numCAMReplacements       242513                       # Number of CVU CAM entries replaced (Unspecified)
system.cpu.loadValPred.constant_verification_unit.numLoadAccesses      2137435                       # Number of loads marked constant which accessed the CVU (Unspecified)
system.cpu.loadValPred.constant_verification_unit.numStoreAccesses      1586036                       # Number of store instructions which accessed the CVU (Unspecified)
system.cpu.loadValPred.constant_verification_unit.numStoreHits       411093                       # Number of stores that hit in the CVU CAM (Unspecified)
system.cpu.loadValPred.constant_verification_unit.numStoreMisses      1174943                       # Number of stores that missed in the CVU CAM (Unspecified)
system.cpu.loadValPred.correctTotal           2623739                       # Number predictions corrects for predictable verification (Unspecified)
system.cpu.loadValPred.numConstLoads          2345148                       # Number of loads classified as constant (Unspecified)
system.cpu.loadValPred.numConstLoadsCorrect      1483972                       # Number of constant loads correctly predicted (Unspecified)
system.cpu.loadValPred.numConstLoadsMispredicted       653463                       # Number of constant loads incorrectly predicted (Unspecified)
system.cpu.loadValPred.numConstValOne           19638                       # Number of constant loads with value 1 (Unspecified)
system.cpu.loadValPred.numConstValZero          68797                       # Number of constant loads with value 0 (Unspecified)
system.cpu.loadValPred.numPredictableLoads       739639                       # Number of loads classified as predictable (Unspecified)
system.cpu.loadValPred.numPredictableLoadsCorrect       653312                       # Number of loads correctly classified as predictable (Unspecified)
system.cpu.loadValPred.numPredictableLoadsIncorrect        76575                       # Number of loads incorrectly classified as predictable (Unspecified)
system.cpu.loadValPred.totalLoads             4145879                       # Total loads processed by the Load value predictor (Unspecified)
system.cpu.loadValPred.valueLocalityNumerator      2727427                       # Number predictions corrects (Unspecified)

---------- End Simulation Statistics   ----------
