
---------- Begin Simulation Statistics ----------
simSeconds                                   0.095174                       # Number of seconds simulated (Second)
simTicks                                  95174333500                       # Number of ticks simulated (Tick)
finalTick                                 95174333500                       # Number of ticks from beginning of simulation (restored from checkpoints and never reset) (Tick)
simFreq                                  1000000000000                       # The number of ticks per simulated second ((Tick/Second))
hostSeconds                                    306.69                       # Real time elapsed on the host (Second)
hostTickRate                                310327693                       # The number of ticks simulated per host second (ticks/s) ((Tick/Second))
hostMemory                                    8729652                       # Number of bytes of host memory used (Byte)
simInsts                                     10000000                       # Number of instructions simulated (Count)
simOps                                       19972351                       # Number of ops (including micro ops) simulated (Count)
hostInstRate                                    32606                       # Simulator instruction rate (inst/s) ((Count/Second))
hostOpRate                                      65122                       # Simulator op (including micro ops) rate (op/s) ((Count/Second))
system.clk_domain.clock                          1000                       # Clock period in ticks (Tick)
system.cpu.numCycles                        190348668                       # Number of cpu cycles simulated (Cycle)
system.cpu.numWorkItemsStarted                      0                       # Number of work items this cpu started (Count)
system.cpu.numWorkItemsCompleted                    0                       # Number of work items this cpu completed (Count)
system.cpu.instsAdded                        21594545                       # Number of instructions added to the IQ (excludes non-spec) (Count)
system.cpu.nonSpecInstsAdded                      209                       # Number of non-speculative instructions added to the IQ (Count)
system.cpu.instsIssued                       21457501                       # Number of instructions issued (Count)
system.cpu.squashedInstsIssued                   1599                       # Number of squashed instructions issued (Count)
system.cpu.squashedInstsExamined              1622402                       # Number of squashed instructions iterated over during squash; mainly for profiling (Count)
system.cpu.squashedOperandsExamined           3484412                       # Number of squashed operands that are examined and possibly removed from graph (Count)
system.cpu.squashedNonSpecRemoved                 146                       # Number of squashed non-spec instructions that were removed (Count)
system.cpu.numIssuedDist::samples           190275969                       # Number of insts issued each cycle (Count)
system.cpu.numIssuedDist::mean               0.112770                       # Number of insts issued each cycle (Count)
system.cpu.numIssuedDist::stdev              0.464340                       # Number of insts issued each cycle (Count)
system.cpu.numIssuedDist::underflows                0      0.00%      0.00% # Number of insts issued each cycle (Count)
system.cpu.numIssuedDist::0                 174208679     91.56%     91.56% # Number of insts issued each cycle (Count)
system.cpu.numIssuedDist::1                  13826180      7.27%     98.82% # Number of insts issued each cycle (Count)
system.cpu.numIssuedDist::2                    529666      0.28%     99.10% # Number of insts issued each cycle (Count)
system.cpu.numIssuedDist::3                    754219      0.40%     99.50% # Number of insts issued each cycle (Count)
system.cpu.numIssuedDist::4                    770038      0.40%     99.90% # Number of insts issued each cycle (Count)
system.cpu.numIssuedDist::5                     66341      0.03%     99.94% # Number of insts issued each cycle (Count)
system.cpu.numIssuedDist::6                     19368      0.01%     99.95% # Number of insts issued each cycle (Count)
system.cpu.numIssuedDist::7                     30557      0.02%     99.96% # Number of insts issued each cycle (Count)
system.cpu.numIssuedDist::8                     70921      0.04%    100.00% # Number of insts issued each cycle (Count)
system.cpu.numIssuedDist::overflows                 0      0.00%    100.00% # Number of insts issued each cycle (Count)
system.cpu.numIssuedDist::min_value                 0                       # Number of insts issued each cycle (Count)
system.cpu.numIssuedDist::max_value                 8                       # Number of insts issued each cycle (Count)
system.cpu.numIssuedDist::total             190275969                       # Number of insts issued each cycle (Count)
system.cpu.statFuBusy::No_OpClass                   0      0.00%      0.00% # attempts to use FU when none available (Count)
system.cpu.statFuBusy::IntAlu                    5779      4.93%      4.93% # attempts to use FU when none available (Count)
system.cpu.statFuBusy::IntMult                      0      0.00%      4.93% # attempts to use FU when none available (Count)
system.cpu.statFuBusy::IntDiv                       0      0.00%      4.93% # attempts to use FU when none available (Count)
system.cpu.statFuBusy::FloatAdd                     0      0.00%      4.93% # attempts to use FU when none available (Count)
system.cpu.statFuBusy::FloatCmp                     0      0.00%      4.93% # attempts to use FU when none available (Count)
system.cpu.statFuBusy::FloatCvt                     0      0.00%      4.93% # attempts to use FU when none available (Count)
system.cpu.statFuBusy::FloatMult                    0      0.00%      4.93% # attempts to use FU when none available (Count)
system.cpu.statFuBusy::FloatMultAcc                 0      0.00%      4.93% # attempts to use FU when none available (Count)
system.cpu.statFuBusy::FloatDiv                     0      0.00%      4.93% # attempts to use FU when none available (Count)
system.cpu.statFuBusy::FloatMisc                    0      0.00%      4.93% # attempts to use FU when none available (Count)
system.cpu.statFuBusy::FloatSqrt                    0      0.00%      4.93% # attempts to use FU when none available (Count)
system.cpu.statFuBusy::SimdAdd                      0      0.00%      4.93% # attempts to use FU when none available (Count)
system.cpu.statFuBusy::SimdAddAcc                   0      0.00%      4.93% # attempts to use FU when none available (Count)
system.cpu.statFuBusy::SimdAlu                      3      0.00%      4.93% # attempts to use FU when none available (Count)
system.cpu.statFuBusy::SimdCmp                      0      0.00%      4.93% # attempts to use FU when none available (Count)
system.cpu.statFuBusy::SimdCvt                      0      0.00%      4.93% # attempts to use FU when none available (Count)
system.cpu.statFuBusy::SimdMisc                     0      0.00%      4.93% # attempts to use FU when none available (Count)
system.cpu.statFuBusy::SimdMult                     0      0.00%      4.93% # attempts to use FU when none available (Count)
system.cpu.statFuBusy::SimdMultAcc                  0      0.00%      4.93% # attempts to use FU when none available (Count)
system.cpu.statFuBusy::SimdShift                    0      0.00%      4.93% # attempts to use FU when none available (Count)
system.cpu.statFuBusy::SimdShiftAcc                 0      0.00%      4.93% # attempts to use FU when none available (Count)
system.cpu.statFuBusy::SimdDiv                      0      0.00%      4.93% # attempts to use FU when none available (Count)
system.cpu.statFuBusy::SimdSqrt                     0      0.00%      4.93% # attempts to use FU when none available (Count)
system.cpu.statFuBusy::SimdFloatAdd                 0      0.00%      4.93% # attempts to use FU when none available (Count)
system.cpu.statFuBusy::SimdFloatAlu                 0      0.00%      4.93% # attempts to use FU when none available (Count)
system.cpu.statFuBusy::SimdFloatCmp                 0      0.00%      4.93% # attempts to use FU when none available (Count)
system.cpu.statFuBusy::SimdFloatCvt                 0      0.00%      4.93% # attempts to use FU when none available (Count)
system.cpu.statFuBusy::SimdFloatDiv                 0      0.00%      4.93% # attempts to use FU when none available (Count)
system.cpu.statFuBusy::SimdFloatMisc                0      0.00%      4.93% # attempts to use FU when none available (Count)
system.cpu.statFuBusy::SimdFloatMult                0      0.00%      4.93% # attempts to use FU when none available (Count)
system.cpu.statFuBusy::SimdFloatMultAcc             0      0.00%      4.93% # attempts to use FU when none available (Count)
system.cpu.statFuBusy::SimdFloatSqrt                0      0.00%      4.93% # attempts to use FU when none available (Count)
system.cpu.statFuBusy::SimdReduceAdd                0      0.00%      4.93% # attempts to use FU when none available (Count)
system.cpu.statFuBusy::SimdReduceAlu                0      0.00%      4.93% # attempts to use FU when none available (Count)
system.cpu.statFuBusy::SimdReduceCmp                0      0.00%      4.93% # attempts to use FU when none available (Count)
system.cpu.statFuBusy::SimdFloatReduceAdd            0      0.00%      4.93% # attempts to use FU when none available (Count)
system.cpu.statFuBusy::SimdFloatReduceCmp            0      0.00%      4.93% # attempts to use FU when none available (Count)
system.cpu.statFuBusy::SimdAes                      0      0.00%      4.93% # attempts to use FU when none available (Count)
system.cpu.statFuBusy::SimdAesMix                   0      0.00%      4.93% # attempts to use FU when none available (Count)
system.cpu.statFuBusy::SimdSha1Hash                 0      0.00%      4.93% # attempts to use FU when none available (Count)
system.cpu.statFuBusy::SimdSha1Hash2                0      0.00%      4.93% # attempts to use FU when none available (Count)
system.cpu.statFuBusy::SimdSha256Hash               0      0.00%      4.93% # attempts to use FU when none available (Count)
system.cpu.statFuBusy::SimdSha256Hash2              0      0.00%      4.93% # attempts to use FU when none available (Count)
system.cpu.statFuBusy::SimdShaSigma2                0      0.00%      4.93% # attempts to use FU when none available (Count)
system.cpu.statFuBusy::SimdShaSigma3                0      0.00%      4.93% # attempts to use FU when none available (Count)
system.cpu.statFuBusy::SimdPredAlu                  0      0.00%      4.93% # attempts to use FU when none available (Count)
system.cpu.statFuBusy::MemRead                    868      0.74%      5.67% # attempts to use FU when none available (Count)
system.cpu.statFuBusy::MemWrite                   968      0.83%      6.50% # attempts to use FU when none available (Count)
system.cpu.statFuBusy::FloatMemRead                88      0.08%      6.58% # attempts to use FU when none available (Count)
system.cpu.statFuBusy::FloatMemWrite           109489     93.42%    100.00% # attempts to use FU when none available (Count)
system.cpu.statFuBusy::IprAccess                    0      0.00%    100.00% # attempts to use FU when none available (Count)
system.cpu.statFuBusy::InstPrefetch                 0      0.00%    100.00% # attempts to use FU when none available (Count)
system.cpu.statIssuedInstType_0::No_OpClass         2356      0.01%      0.01% # Number of instructions issued per FU type, per thread (Count)
system.cpu.statIssuedInstType_0::IntAlu       9421622     43.91%     43.92% # Number of instructions issued per FU type, per thread (Count)
system.cpu.statIssuedInstType_0::IntMult          107      0.00%     43.92% # Number of instructions issued per FU type, per thread (Count)
system.cpu.statIssuedInstType_0::IntDiv          1947      0.01%     43.93% # Number of instructions issued per FU type, per thread (Count)
system.cpu.statIssuedInstType_0::FloatAdd          115      0.00%     43.93% # Number of instructions issued per FU type, per thread (Count)
system.cpu.statIssuedInstType_0::FloatCmp            0      0.00%     43.93% # Number of instructions issued per FU type, per thread (Count)
system.cpu.statIssuedInstType_0::FloatCvt          112      0.00%     43.93% # Number of instructions issued per FU type, per thread (Count)
system.cpu.statIssuedInstType_0::FloatMult            0      0.00%     43.93% # Number of instructions issued per FU type, per thread (Count)
system.cpu.statIssuedInstType_0::FloatMultAcc            0      0.00%     43.93% # Number of instructions issued per FU type, per thread (Count)
system.cpu.statIssuedInstType_0::FloatDiv            0      0.00%     43.93% # Number of instructions issued per FU type, per thread (Count)
system.cpu.statIssuedInstType_0::FloatMisc            0      0.00%     43.93% # Number of instructions issued per FU type, per thread (Count)
system.cpu.statIssuedInstType_0::FloatSqrt            0      0.00%     43.93% # Number of instructions issued per FU type, per thread (Count)
system.cpu.statIssuedInstType_0::SimdAdd           19      0.00%     43.93% # Number of instructions issued per FU type, per thread (Count)
system.cpu.statIssuedInstType_0::SimdAddAcc            0      0.00%     43.93% # Number of instructions issued per FU type, per thread (Count)
system.cpu.statIssuedInstType_0::SimdAlu          154      0.00%     43.93% # Number of instructions issued per FU type, per thread (Count)
system.cpu.statIssuedInstType_0::SimdCmp            0      0.00%     43.93% # Number of instructions issued per FU type, per thread (Count)
system.cpu.statIssuedInstType_0::SimdCvt          285      0.00%     43.93% # Number of instructions issued per FU type, per thread (Count)
system.cpu.statIssuedInstType_0::SimdMisc          452      0.00%     43.93% # Number of instructions issued per FU type, per thread (Count)
system.cpu.statIssuedInstType_0::SimdMult            0      0.00%     43.93% # Number of instructions issued per FU type, per thread (Count)
system.cpu.statIssuedInstType_0::SimdMultAcc            0      0.00%     43.93% # Number of instructions issued per FU type, per thread (Count)
system.cpu.statIssuedInstType_0::SimdShift           39      0.00%     43.93% # Number of instructions issued per FU type, per thread (Count)
system.cpu.statIssuedInstType_0::SimdShiftAcc            0      0.00%     43.93% # Number of instructions issued per FU type, per thread (Count)
system.cpu.statIssuedInstType_0::SimdDiv            0      0.00%     43.93% # Number of instructions issued per FU type, per thread (Count)
system.cpu.statIssuedInstType_0::SimdSqrt            0      0.00%     43.93% # Number of instructions issued per FU type, per thread (Count)
system.cpu.statIssuedInstType_0::SimdFloatAdd            0      0.00%     43.93% # Number of instructions issued per FU type, per thread (Count)
system.cpu.statIssuedInstType_0::SimdFloatAlu            0      0.00%     43.93% # Number of instructions issued per FU type, per thread (Count)
system.cpu.statIssuedInstType_0::SimdFloatCmp            0      0.00%     43.93% # Number of instructions issued per FU type, per thread (Count)
system.cpu.statIssuedInstType_0::SimdFloatCvt            0      0.00%     43.93% # Number of instructions issued per FU type, per thread (Count)
system.cpu.statIssuedInstType_0::SimdFloatDiv            0      0.00%     43.93% # Number of instructions issued per FU type, per thread (Count)
system.cpu.statIssuedInstType_0::SimdFloatMisc            0      0.00%     43.93% # Number of instructions issued per FU type, per thread (Count)
system.cpu.statIssuedInstType_0::SimdFloatMult            0      0.00%     43.93% # Number of instructions issued per FU type, per thread (Count)
system.cpu.statIssuedInstType_0::SimdFloatMultAcc            0      0.00%     43.93% # Number of instructions issued per FU type, per thread (Count)
system.cpu.statIssuedInstType_0::SimdFloatSqrt            0      0.00%     43.93% # Number of instructions issued per FU type, per thread (Count)
system.cpu.statIssuedInstType_0::SimdReduceAdd            0      0.00%     43.93% # Number of instructions issued per FU type, per thread (Count)
system.cpu.statIssuedInstType_0::SimdReduceAlu            0      0.00%     43.93% # Number of instructions issued per FU type, per thread (Count)
system.cpu.statIssuedInstType_0::SimdReduceCmp            0      0.00%     43.93% # Number of instructions issued per FU type, per thread (Count)
system.cpu.statIssuedInstType_0::SimdFloatReduceAdd            0      0.00%     43.93% # Number of instructions issued per FU type, per thread (Count)
system.cpu.statIssuedInstType_0::SimdFloatReduceCmp            0      0.00%     43.93% # Number of instructions issued per FU type, per thread (Count)
system.cpu.statIssuedInstType_0::SimdAes            0      0.00%     43.93% # Number of instructions issued per FU type, per thread (Count)
system.cpu.statIssuedInstType_0::SimdAesMix            0      0.00%     43.93% # Number of instructions issued per FU type, per thread (Count)
system.cpu.statIssuedInstType_0::SimdSha1Hash            0      0.00%     43.93% # Number of instructions issued per FU type, per thread (Count)
system.cpu.statIssuedInstType_0::SimdSha1Hash2            0      0.00%     43.93% # Number of instructions issued per FU type, per thread (Count)
system.cpu.statIssuedInstType_0::SimdSha256Hash            0      0.00%     43.93% # Number of instructions issued per FU type, per thread (Count)
system.cpu.statIssuedInstType_0::SimdSha256Hash2            0      0.00%     43.93% # Number of instructions issued per FU type, per thread (Count)
system.cpu.statIssuedInstType_0::SimdShaSigma2            0      0.00%     43.93% # Number of instructions issued per FU type, per thread (Count)
system.cpu.statIssuedInstType_0::SimdShaSigma3            0      0.00%     43.93% # Number of instructions issued per FU type, per thread (Count)
system.cpu.statIssuedInstType_0::SimdPredAlu            0      0.00%     43.93% # Number of instructions issued per FU type, per thread (Count)
system.cpu.statIssuedInstType_0::MemRead        92079      0.43%     44.36% # Number of instructions issued per FU type, per thread (Count)
system.cpu.statIssuedInstType_0::MemWrite        29437      0.14%     44.50% # Number of instructions issued per FU type, per thread (Count)
system.cpu.statIssuedInstType_0::FloatMemRead          690      0.00%     44.50% # Number of instructions issued per FU type, per thread (Count)
system.cpu.statIssuedInstType_0::FloatMemWrite     11908087     55.50%    100.00% # Number of instructions issued per FU type, per thread (Count)
system.cpu.statIssuedInstType_0::IprAccess            0      0.00%    100.00% # Number of instructions issued per FU type, per thread (Count)
system.cpu.statIssuedInstType_0::InstPrefetch            0      0.00%    100.00% # Number of instructions issued per FU type, per thread (Count)
system.cpu.statIssuedInstType_0::total       21457501                       # Number of instructions issued per FU type, per thread (Count)
system.cpu.issueRate                         0.112727                       # Inst issue rate ((Count/Cycle))
system.cpu.fuBusy                              117195                       # FU busy when requested (Count)
system.cpu.fuBusyRate                        0.005462                       # FU busy rate (busy events/executed inst) ((Count/Count))
system.cpu.intInstQueueReads                209379958                       # Number of integer instruction queue reads (Count)
system.cpu.intInstQueueWrites                10605395                       # Number of integer instruction queue writes (Count)
system.cpu.intInstQueueWakeupAccesses         9510580                       # Number of integer instruction queue wakeup accesses (Count)
system.cpu.fpInstQueueReads                  23929806                       # Number of floating instruction queue reads (Count)
system.cpu.fpInstQueueWrites                 12611845                       # Number of floating instruction queue writes (Count)
system.cpu.fpInstQueueWakeupAccesses         11253154                       # Number of floating instruction queue wakeup accesses (Count)
system.cpu.vecInstQueueReads                        0                       # Number of vector instruction queue reads (Count)
system.cpu.vecInstQueueWrites                       0                       # Number of vector instruction queue writes (Count)
system.cpu.vecInstQueueWakeupAccesses               0                       # Number of vector instruction queue wakeup accesses (Count)
system.cpu.intAluAccesses                     9552664                       # Number of integer alu accesses (Count)
system.cpu.fpAluAccesses                     12019676                       # Number of floating point alu accesses (Count)
system.cpu.vecAluAccesses                           0                       # Number of vector alu accesses (Count)
system.cpu.numInsts                          21437021                       # Number of executed instructions (Count)
system.cpu.numLoadInsts                         88381                       # Number of load instructions executed (Count)
system.cpu.numSquashedInsts                     20479                       # Number of squashed instructions skipped in execute (Count)
system.cpu.numSwp                                   0                       # Number of swp insts executed (Count)
system.cpu.numNop                                   0                       # Number of nop insts executed (Count)
system.cpu.numRefs                           12024368                       # Number of memory reference insts executed (Count)
system.cpu.numBranches                        1547565                       # Number of branches executed (Count)
system.cpu.numStoreInsts                     11935987                       # Number of stores executed (Count)
system.cpu.numRate                           0.112620                       # Inst execution rate ((Count/Cycle))
system.cpu.timesIdled                             863                       # Number of times that the entire CPU went into an idle state and unscheduled itself (Count)
system.cpu.idleCycles                           72699                       # Total number of cycles that the CPU has spent unscheduled due to idling (Cycle)
system.cpu.committedInsts                    10000000                       # Number of Instructions Simulated (Count)
system.cpu.committedOps                      19972351                       # Number of Ops (including micro ops) Simulated (Count)
system.cpu.cpi                              19.034867                       # CPI: Cycles Per Instruction ((Cycle/Count))
system.cpu.totalCpi                         19.034867                       # CPI: Total CPI of All Threads ((Cycle/Count))
system.cpu.ipc                               0.052535                       # IPC: Instructions Per Cycle ((Count/Cycle))
system.cpu.totalIpc                          0.052535                       # IPC: Total IPC of All Threads ((Count/Cycle))
system.cpu.intRegfileReads                   21648446                       # Number of integer regfile reads (Count)
system.cpu.intRegfileWrites                   6444756                       # Number of integer regfile writes (Count)
system.cpu.fpRegfileReads                    11911249                       # Number of floating regfile reads (Count)
system.cpu.fpRegfileWrites                       1820                       # Number of floating regfile writes (Count)
system.cpu.ccRegfileReads                     7744012                       # number of cc regfile reads (Count)
system.cpu.ccRegfileWrites                    6157520                       # number of cc regfile writes (Count)
system.cpu.miscRegfileReads                  15142757                       # number of misc regfile reads (Count)
system.cpu.miscRegfileWrites                       63                       # number of misc regfile writes (Count)
system.cpu.MemDepUnit__0.insertedLoads         107530                       # Number of loads inserted to the mem dependence unit. (Count)
system.cpu.MemDepUnit__0.insertedStores      11942984                       # Number of stores inserted to the mem dependence unit. (Count)
system.cpu.MemDepUnit__0.conflictingLoads         2139                       # Number of conflicting loads. (Count)
system.cpu.MemDepUnit__0.conflictingStores         1561                       # Number of conflicting stores. (Count)
system.cpu.MemDepUnit__1.insertedLoads              0                       # Number of loads inserted to the mem dependence unit. (Count)
system.cpu.MemDepUnit__1.insertedStores             0                       # Number of stores inserted to the mem dependence unit. (Count)
system.cpu.MemDepUnit__1.conflictingLoads            0                       # Number of conflicting loads. (Count)
system.cpu.MemDepUnit__1.conflictingStores            0                       # Number of conflicting stores. (Count)
system.cpu.MemDepUnit__2.insertedLoads              0                       # Number of loads inserted to the mem dependence unit. (Count)
system.cpu.MemDepUnit__2.insertedStores             0                       # Number of stores inserted to the mem dependence unit. (Count)
system.cpu.MemDepUnit__2.conflictingLoads            0                       # Number of conflicting loads. (Count)
system.cpu.MemDepUnit__2.conflictingStores            0                       # Number of conflicting stores. (Count)
system.cpu.MemDepUnit__3.insertedLoads              0                       # Number of loads inserted to the mem dependence unit. (Count)
system.cpu.MemDepUnit__3.insertedStores             0                       # Number of stores inserted to the mem dependence unit. (Count)
system.cpu.MemDepUnit__3.conflictingLoads            0                       # Number of conflicting loads. (Count)
system.cpu.MemDepUnit__3.conflictingStores            0                       # Number of conflicting stores. (Count)
system.cpu.branchPred.lookups                 1670429                       # Number of BP lookups (Count)
system.cpu.branchPred.condPredicted           1654083                       # Number of conditional branches predicted (Count)
system.cpu.branchPred.condIncorrect              6222                       # Number of conditional branches incorrect (Count)
system.cpu.branchPred.BTBLookups              1613466                       # Number of BTB lookups (Count)
system.cpu.branchPred.BTBHits                 1610610                       # Number of BTB hits (Count)
system.cpu.branchPred.BTBHitRatio            0.998230                       # BTB Hit Ratio (Ratio)
system.cpu.branchPred.RASUsed                    4216                       # Number of times the RAS was used to get a target. (Count)
system.cpu.branchPred.RASIncorrect                  5                       # Number of incorrect RAS predictions. (Count)
system.cpu.branchPred.indirectLookups            1641                       # Number of indirect predictor lookups. (Count)
system.cpu.branchPred.indirectHits                488                       # Number of indirect target hits. (Count)
system.cpu.branchPred.indirectMisses             1153                       # Number of indirect misses. (Count)
system.cpu.branchPred.indirectMispredicted          263                       # Number of mispredicted indirect branches. (Count)
system.cpu.commit.commitSquashedInsts         1466110                       # The number of squashed insts skipped by commit (Count)
system.cpu.commit.commitNonSpecStalls              63                       # The number of times commit has been forced to stall to communicate backwards (Count)
system.cpu.commit.branchMispredicts             10618                       # The number of times a branch was mispredicted (Count)
system.cpu.commit.numCommittedDist::samples    190062688                       # Number of insts commited each cycle (Count)
system.cpu.commit.numCommittedDist::mean     0.105083                       # Number of insts commited each cycle (Count)
system.cpu.commit.numCommittedDist::stdev     0.432915                       # Number of insts commited each cycle (Count)
system.cpu.commit.numCommittedDist::underflows            0      0.00%      0.00% # Number of insts commited each cycle (Count)
system.cpu.commit.numCommittedDist::0       175022852     92.09%     92.09% # Number of insts commited each cycle (Count)
system.cpu.commit.numCommittedDist::1        12338172      6.49%     98.58% # Number of insts commited each cycle (Count)
system.cpu.commit.numCommittedDist::2         1110011      0.58%     99.16% # Number of insts commited each cycle (Count)
system.cpu.commit.numCommittedDist::3         1403350      0.74%     99.90% # Number of insts commited each cycle (Count)
system.cpu.commit.numCommittedDist::4           50659      0.03%     99.93% # Number of insts commited each cycle (Count)
system.cpu.commit.numCommittedDist::5           29641      0.02%     99.94% # Number of insts commited each cycle (Count)
system.cpu.commit.numCommittedDist::6            4312      0.00%     99.95% # Number of insts commited each cycle (Count)
system.cpu.commit.numCommittedDist::7            2134      0.00%     99.95% # Number of insts commited each cycle (Count)
system.cpu.commit.numCommittedDist::8          101557      0.05%    100.00% # Number of insts commited each cycle (Count)
system.cpu.commit.numCommittedDist::overflows            0      0.00%    100.00% # Number of insts commited each cycle (Count)
system.cpu.commit.numCommittedDist::min_value            0                       # Number of insts commited each cycle (Count)
system.cpu.commit.numCommittedDist::max_value            8                       # Number of insts commited each cycle (Count)
system.cpu.commit.numCommittedDist::total    190062688                       # Number of insts commited each cycle (Count)
system.cpu.commit.instsCommitted             10000000                       # Number of instructions committed (Count)
system.cpu.commit.opsCommitted               19972351                       # Number of ops (including micro ops) committed (Count)
system.cpu.commit.memRefs                    11278664                       # Number of memory references committed (Count)
system.cpu.commit.loads                         51398                       # Number of loads committed (Count)
system.cpu.commit.amos                              0                       # Number of atomic instructions committed (Count)
system.cpu.commit.membars                           0                       # Number of memory barriers committed (Count)
system.cpu.commit.branches                    1444581                       # Number of branches committed (Count)
system.cpu.commit.vectorInstructions                0                       # Number of committed Vector instructions. (Count)
system.cpu.commit.floating                   11208860                       # Number of committed floating point instructions. (Count)
system.cpu.commit.integer                    19967938                       # Number of committed integer instructions. (Count)
system.cpu.commit.functionCalls                  1457                       # Number of function calls committed. (Count)
system.cpu.commit.committedInstType_0::No_OpClass          776      0.00%      0.00% # Class of committed instruction (Count)
system.cpu.commit.committedInstType_0::IntAlu      8690175     43.51%     43.51% # Class of committed instruction (Count)
system.cpu.commit.committedInstType_0::IntMult           67      0.00%     43.52% # Class of committed instruction (Count)
system.cpu.commit.committedInstType_0::IntDiv         1740      0.01%     43.52% # Class of committed instruction (Count)
system.cpu.commit.committedInstType_0::FloatAdd           89      0.00%     43.52% # Class of committed instruction (Count)
system.cpu.commit.committedInstType_0::FloatCmp            0      0.00%     43.52% # Class of committed instruction (Count)
system.cpu.commit.committedInstType_0::FloatCvt          112      0.00%     43.52% # Class of committed instruction (Count)
system.cpu.commit.committedInstType_0::FloatMult            0      0.00%     43.52% # Class of committed instruction (Count)
system.cpu.commit.committedInstType_0::FloatMultAcc            0      0.00%     43.52% # Class of committed instruction (Count)
system.cpu.commit.committedInstType_0::FloatDiv            0      0.00%     43.52% # Class of committed instruction (Count)
system.cpu.commit.committedInstType_0::FloatMisc            0      0.00%     43.52% # Class of committed instruction (Count)
system.cpu.commit.committedInstType_0::FloatSqrt            0      0.00%     43.52% # Class of committed instruction (Count)
system.cpu.commit.committedInstType_0::SimdAdd           12      0.00%     43.53% # Class of committed instruction (Count)
system.cpu.commit.committedInstType_0::SimdAddAcc            0      0.00%     43.53% # Class of committed instruction (Count)
system.cpu.commit.committedInstType_0::SimdAlu          109      0.00%     43.53% # Class of committed instruction (Count)
system.cpu.commit.committedInstType_0::SimdCmp            0      0.00%     43.53% # Class of committed instruction (Count)
system.cpu.commit.committedInstType_0::SimdCvt          196      0.00%     43.53% # Class of committed instruction (Count)
system.cpu.commit.committedInstType_0::SimdMisc          401      0.00%     43.53% # Class of committed instruction (Count)
system.cpu.commit.committedInstType_0::SimdMult            0      0.00%     43.53% # Class of committed instruction (Count)
system.cpu.commit.committedInstType_0::SimdMultAcc            0      0.00%     43.53% # Class of committed instruction (Count)
system.cpu.commit.committedInstType_0::SimdShift           10      0.00%     43.53% # Class of committed instruction (Count)
system.cpu.commit.committedInstType_0::SimdShiftAcc            0      0.00%     43.53% # Class of committed instruction (Count)
system.cpu.commit.committedInstType_0::SimdDiv            0      0.00%     43.53% # Class of committed instruction (Count)
system.cpu.commit.committedInstType_0::SimdSqrt            0      0.00%     43.53% # Class of committed instruction (Count)
system.cpu.commit.committedInstType_0::SimdFloatAdd            0      0.00%     43.53% # Class of committed instruction (Count)
system.cpu.commit.committedInstType_0::SimdFloatAlu            0      0.00%     43.53% # Class of committed instruction (Count)
system.cpu.commit.committedInstType_0::SimdFloatCmp            0      0.00%     43.53% # Class of committed instruction (Count)
system.cpu.commit.committedInstType_0::SimdFloatCvt            0      0.00%     43.53% # Class of committed instruction (Count)
system.cpu.commit.committedInstType_0::SimdFloatDiv            0      0.00%     43.53% # Class of committed instruction (Count)
system.cpu.commit.committedInstType_0::SimdFloatMisc            0      0.00%     43.53% # Class of committed instruction (Count)
system.cpu.commit.committedInstType_0::SimdFloatMult            0      0.00%     43.53% # Class of committed instruction (Count)
system.cpu.commit.committedInstType_0::SimdFloatMultAcc            0      0.00%     43.53% # Class of committed instruction (Count)
system.cpu.commit.committedInstType_0::SimdFloatSqrt            0      0.00%     43.53% # Class of committed instruction (Count)
system.cpu.commit.committedInstType_0::SimdReduceAdd            0      0.00%     43.53% # Class of committed instruction (Count)
system.cpu.commit.committedInstType_0::SimdReduceAlu            0      0.00%     43.53% # Class of committed instruction (Count)
system.cpu.commit.committedInstType_0::SimdReduceCmp            0      0.00%     43.53% # Class of committed instruction (Count)
system.cpu.commit.committedInstType_0::SimdFloatReduceAdd            0      0.00%     43.53% # Class of committed instruction (Count)
system.cpu.commit.committedInstType_0::SimdFloatReduceCmp            0      0.00%     43.53% # Class of committed instruction (Count)
system.cpu.commit.committedInstType_0::SimdAes            0      0.00%     43.53% # Class of committed instruction (Count)
system.cpu.commit.committedInstType_0::SimdAesMix            0      0.00%     43.53% # Class of committed instruction (Count)
system.cpu.commit.committedInstType_0::SimdSha1Hash            0      0.00%     43.53% # Class of committed instruction (Count)
system.cpu.commit.committedInstType_0::SimdSha1Hash2            0      0.00%     43.53% # Class of committed instruction (Count)
system.cpu.commit.committedInstType_0::SimdSha256Hash            0      0.00%     43.53% # Class of committed instruction (Count)
system.cpu.commit.committedInstType_0::SimdSha256Hash2            0      0.00%     43.53% # Class of committed instruction (Count)
system.cpu.commit.committedInstType_0::SimdShaSigma2            0      0.00%     43.53% # Class of committed instruction (Count)
system.cpu.commit.committedInstType_0::SimdShaSigma3            0      0.00%     43.53% # Class of committed instruction (Count)
system.cpu.commit.committedInstType_0::SimdPredAlu            0      0.00%     43.53% # Class of committed instruction (Count)
system.cpu.commit.committedInstType_0::MemRead        51053      0.26%     43.78% # Class of committed instruction (Count)
system.cpu.commit.committedInstType_0::MemWrite        19787      0.10%     43.88% # Class of committed instruction (Count)
system.cpu.commit.committedInstType_0::FloatMemRead          345      0.00%     43.89% # Class of committed instruction (Count)
system.cpu.commit.committedInstType_0::FloatMemWrite     11207479     56.11%    100.00% # Class of committed instruction (Count)
system.cpu.commit.committedInstType_0::IprAccess            0      0.00%    100.00% # Class of committed instruction (Count)
system.cpu.commit.committedInstType_0::InstPrefetch            0      0.00%    100.00% # Class of committed instruction (Count)
system.cpu.commit.committedInstType_0::total     19972351                       # Class of committed instruction (Count)
system.cpu.commit.commitEligibleSamples        101557                       # number cycles where commit BW limit reached (Cycle)
system.cpu.dcache.demandHits::cpu.data        9896517                       # number of demand (read+write) hits (Count)
system.cpu.dcache.demandHits::total           9896517                       # number of demand (read+write) hits (Count)
system.cpu.dcache.overallHits::cpu.data       9896517                       # number of overall hits (Count)
system.cpu.dcache.overallHits::total          9896517                       # number of overall hits (Count)
system.cpu.dcache.demandMisses::cpu.data      1413040                       # number of demand (read+write) misses (Count)
system.cpu.dcache.demandMisses::total         1413040                       # number of demand (read+write) misses (Count)
system.cpu.dcache.overallMisses::cpu.data      1413040                       # number of overall misses (Count)
system.cpu.dcache.overallMisses::total        1413040                       # number of overall misses (Count)
system.cpu.dcache.demandMissLatency::cpu.data  85407274990                       # number of demand (read+write) miss ticks (Tick)
system.cpu.dcache.demandMissLatency::total  85407274990                       # number of demand (read+write) miss ticks (Tick)
system.cpu.dcache.overallMissLatency::cpu.data  85407274990                       # number of overall miss ticks (Tick)
system.cpu.dcache.overallMissLatency::total  85407274990                       # number of overall miss ticks (Tick)
system.cpu.dcache.demandAccesses::cpu.data     11309557                       # number of demand (read+write) accesses (Count)
system.cpu.dcache.demandAccesses::total      11309557                       # number of demand (read+write) accesses (Count)
system.cpu.dcache.overallAccesses::cpu.data     11309557                       # number of overall (read+write) accesses (Count)
system.cpu.dcache.overallAccesses::total     11309557                       # number of overall (read+write) accesses (Count)
system.cpu.dcache.demandMissRate::cpu.data     0.124942                       # miss rate for demand accesses (Ratio)
system.cpu.dcache.demandMissRate::total      0.124942                       # miss rate for demand accesses (Ratio)
system.cpu.dcache.overallMissRate::cpu.data     0.124942                       # miss rate for overall accesses (Ratio)
system.cpu.dcache.overallMissRate::total     0.124942                       # miss rate for overall accesses (Ratio)
system.cpu.dcache.demandAvgMissLatency::cpu.data 60442.220312                       # average overall miss latency in ticks ((Tick/Count))
system.cpu.dcache.demandAvgMissLatency::total 60442.220312                       # average overall miss latency in ticks ((Tick/Count))
system.cpu.dcache.overallAvgMissLatency::cpu.data 60442.220312                       # average overall miss latency ((Tick/Count))
system.cpu.dcache.overallAvgMissLatency::total 60442.220312                       # average overall miss latency ((Tick/Count))
system.cpu.dcache.blockedCycles::no_mshrs        12616                       # number of cycles access was blocked (Cycle)
system.cpu.dcache.blockedCycles::no_targets            0                       # number of cycles access was blocked (Cycle)
system.cpu.dcache.blockedCauses::no_mshrs          284                       # number of times access was blocked (Count)
system.cpu.dcache.blockedCauses::no_targets            0                       # number of times access was blocked (Count)
system.cpu.dcache.avgBlocked::no_mshrs      44.422535                       # average number of cycles each access was blocked ((Cycle/Count))
system.cpu.dcache.avgBlocked::no_targets          nan                       # average number of cycles each access was blocked ((Cycle/Count))
system.cpu.dcache.writebacks::writebacks      1400519                       # number of writebacks (Count)
system.cpu.dcache.writebacks::total           1400519                       # number of writebacks (Count)
system.cpu.dcache.demandMshrHits::cpu.data         9156                       # number of demand (read+write) MSHR hits (Count)
system.cpu.dcache.demandMshrHits::total          9156                       # number of demand (read+write) MSHR hits (Count)
system.cpu.dcache.overallMshrHits::cpu.data         9156                       # number of overall MSHR hits (Count)
system.cpu.dcache.overallMshrHits::total         9156                       # number of overall MSHR hits (Count)
system.cpu.dcache.demandMshrMisses::cpu.data      1403884                       # number of demand (read+write) MSHR misses (Count)
system.cpu.dcache.demandMshrMisses::total      1403884                       # number of demand (read+write) MSHR misses (Count)
system.cpu.dcache.overallMshrMisses::cpu.data      1403884                       # number of overall MSHR misses (Count)
system.cpu.dcache.overallMshrMisses::total      1403884                       # number of overall MSHR misses (Count)
system.cpu.dcache.demandMshrMissLatency::cpu.data  83566034491                       # number of demand (read+write) MSHR miss ticks (Tick)
system.cpu.dcache.demandMshrMissLatency::total  83566034491                       # number of demand (read+write) MSHR miss ticks (Tick)
system.cpu.dcache.overallMshrMissLatency::cpu.data  83566034491                       # number of overall MSHR miss ticks (Tick)
system.cpu.dcache.overallMshrMissLatency::total  83566034491                       # number of overall MSHR miss ticks (Tick)
system.cpu.dcache.demandMshrMissRate::cpu.data     0.124133                       # mshr miss ratio for demand accesses (Ratio)
system.cpu.dcache.demandMshrMissRate::total     0.124133                       # mshr miss ratio for demand accesses (Ratio)
system.cpu.dcache.overallMshrMissRate::cpu.data     0.124133                       # mshr miss ratio for overall accesses (Ratio)
system.cpu.dcache.overallMshrMissRate::total     0.124133                       # mshr miss ratio for overall accesses (Ratio)
system.cpu.dcache.demandAvgMshrMissLatency::cpu.data 59524.885597                       # average overall mshr miss latency ((Tick/Count))
system.cpu.dcache.demandAvgMshrMissLatency::total 59524.885597                       # average overall mshr miss latency ((Tick/Count))
system.cpu.dcache.overallAvgMshrMissLatency::cpu.data 59524.885597                       # average overall mshr miss latency ((Tick/Count))
system.cpu.dcache.overallAvgMshrMissLatency::total 59524.885597                       # average overall mshr miss latency ((Tick/Count))
system.cpu.dcache.replacements                1402859                       # number of replacements (Count)
system.cpu.dcache.ReadReq.hits::cpu.data        70718                       # number of ReadReq hits (Count)
system.cpu.dcache.ReadReq.hits::total           70718                       # number of ReadReq hits (Count)
system.cpu.dcache.ReadReq.misses::cpu.data        11594                       # number of ReadReq misses (Count)
system.cpu.dcache.ReadReq.misses::total         11594                       # number of ReadReq misses (Count)
system.cpu.dcache.ReadReq.missLatency::cpu.data    587313000                       # number of ReadReq miss ticks (Tick)
system.cpu.dcache.ReadReq.missLatency::total    587313000                       # number of ReadReq miss ticks (Tick)
system.cpu.dcache.ReadReq.accesses::cpu.data        82312                       # number of ReadReq accesses(hits+misses) (Count)
system.cpu.dcache.ReadReq.accesses::total        82312                       # number of ReadReq accesses(hits+misses) (Count)
system.cpu.dcache.ReadReq.missRate::cpu.data     0.140854                       # miss rate for ReadReq accesses (Ratio)
system.cpu.dcache.ReadReq.missRate::total     0.140854                       # miss rate for ReadReq accesses (Ratio)
system.cpu.dcache.ReadReq.avgMissLatency::cpu.data 50656.632741                       # average ReadReq miss latency ((Tick/Count))
system.cpu.dcache.ReadReq.avgMissLatency::total 50656.632741                       # average ReadReq miss latency ((Tick/Count))
system.cpu.dcache.ReadReq.mshrHits::cpu.data         9148                       # number of ReadReq MSHR hits (Count)
system.cpu.dcache.ReadReq.mshrHits::total         9148                       # number of ReadReq MSHR hits (Count)
system.cpu.dcache.ReadReq.mshrMisses::cpu.data         2446                       # number of ReadReq MSHR misses (Count)
system.cpu.dcache.ReadReq.mshrMisses::total         2446                       # number of ReadReq MSHR misses (Count)
system.cpu.dcache.ReadReq.mshrMissLatency::cpu.data    147809500                       # number of ReadReq MSHR miss ticks (Tick)
system.cpu.dcache.ReadReq.mshrMissLatency::total    147809500                       # number of ReadReq MSHR miss ticks (Tick)
system.cpu.dcache.ReadReq.mshrMissRate::cpu.data     0.029716                       # mshr miss rate for ReadReq accesses (Ratio)
system.cpu.dcache.ReadReq.mshrMissRate::total     0.029716                       # mshr miss rate for ReadReq accesses (Ratio)
system.cpu.dcache.ReadReq.avgMshrMissLatency::cpu.data 60429.067866                       # average ReadReq mshr miss latency ((Tick/Count))
system.cpu.dcache.ReadReq.avgMshrMissLatency::total 60429.067866                       # average ReadReq mshr miss latency ((Tick/Count))
system.cpu.dcache.WriteReq.hits::cpu.data      9825799                       # number of WriteReq hits (Count)
system.cpu.dcache.WriteReq.hits::total        9825799                       # number of WriteReq hits (Count)
system.cpu.dcache.WriteReq.misses::cpu.data      1401446                       # number of WriteReq misses (Count)
system.cpu.dcache.WriteReq.misses::total      1401446                       # number of WriteReq misses (Count)
system.cpu.dcache.WriteReq.missLatency::cpu.data  84819961990                       # number of WriteReq miss ticks (Tick)
system.cpu.dcache.WriteReq.missLatency::total  84819961990                       # number of WriteReq miss ticks (Tick)
system.cpu.dcache.WriteReq.accesses::cpu.data     11227245                       # number of WriteReq accesses(hits+misses) (Count)
system.cpu.dcache.WriteReq.accesses::total     11227245                       # number of WriteReq accesses(hits+misses) (Count)
system.cpu.dcache.WriteReq.missRate::cpu.data     0.124825                       # miss rate for WriteReq accesses (Ratio)
system.cpu.dcache.WriteReq.missRate::total     0.124825                       # miss rate for WriteReq accesses (Ratio)
system.cpu.dcache.WriteReq.avgMissLatency::cpu.data 60523.175342                       # average WriteReq miss latency ((Tick/Count))
system.cpu.dcache.WriteReq.avgMissLatency::total 60523.175342                       # average WriteReq miss latency ((Tick/Count))
system.cpu.dcache.WriteReq.mshrHits::cpu.data            8                       # number of WriteReq MSHR hits (Count)
system.cpu.dcache.WriteReq.mshrHits::total            8                       # number of WriteReq MSHR hits (Count)
system.cpu.dcache.WriteReq.mshrMisses::cpu.data      1401438                       # number of WriteReq MSHR misses (Count)
system.cpu.dcache.WriteReq.mshrMisses::total      1401438                       # number of WriteReq MSHR misses (Count)
system.cpu.dcache.WriteReq.mshrMissLatency::cpu.data  83418224991                       # number of WriteReq MSHR miss ticks (Tick)
system.cpu.dcache.WriteReq.mshrMissLatency::total  83418224991                       # number of WriteReq MSHR miss ticks (Tick)
system.cpu.dcache.WriteReq.mshrMissRate::cpu.data     0.124825                       # mshr miss rate for WriteReq accesses (Ratio)
system.cpu.dcache.WriteReq.mshrMissRate::total     0.124825                       # mshr miss rate for WriteReq accesses (Ratio)
system.cpu.dcache.WriteReq.avgMshrMissLatency::cpu.data 59523.307482                       # average WriteReq mshr miss latency ((Tick/Count))
system.cpu.dcache.WriteReq.avgMshrMissLatency::total 59523.307482                       # average WriteReq mshr miss latency ((Tick/Count))
system.cpu.dcache.power_state.pwrStateResidencyTicks::UNDEFINED  95174333500                       # Cumulative time (in ticks) in various power states (Tick)
system.cpu.dcache.tags.tagsInUse          1023.414793                       # Average ticks per tags in use ((Tick/Count))
system.cpu.dcache.tags.totalRefs             11300400                       # Total number of references to valid blocks. (Count)
system.cpu.dcache.tags.sampledRefs            1403883                       # Sample count of references to valid blocks. (Count)
system.cpu.dcache.tags.avgRefs               8.049389                       # Average number of references to valid blocks. ((Count/Count))
system.cpu.dcache.tags.warmupTick              148000                       # The tick when the warmup percentage was hit. (Tick)
system.cpu.dcache.tags.occupancies::cpu.data  1023.414793                       # Average occupied blocks per tick, per requestor ((Count/Tick))
system.cpu.dcache.tags.avgOccs::cpu.data     0.999429                       # Average percentage of cache occupancy ((Ratio/Tick))
system.cpu.dcache.tags.avgOccs::total        0.999429                       # Average percentage of cache occupancy ((Ratio/Tick))
system.cpu.dcache.tags.occupanciesTaskId::1024         1024                       # Occupied blocks per task id (Count)
system.cpu.dcache.tags.ageTaskId_1024::0          150                       # Occupied blocks per task id, per block age (Count)
system.cpu.dcache.tags.ageTaskId_1024::1          874                       # Occupied blocks per task id, per block age (Count)
system.cpu.dcache.tags.ratioOccsTaskId::1024            1                       # Ratio of occupied blocks and all blocks, per task id (Ratio)
system.cpu.dcache.tags.tagAccesses           24022997                       # Number of tag accesses (Count)
system.cpu.dcache.tags.dataAccesses          24022997                       # Number of data accesses (Count)
system.cpu.dcache.tags.power_state.pwrStateResidencyTicks::UNDEFINED  95174333500                       # Cumulative time (in ticks) in various power states (Tick)
system.cpu.decode.idleCycles                   944879                       # Number of cycles decode is idle (Cycle)
system.cpu.decode.blockedCycles             186539161                       # Number of cycles decode is blocked (Cycle)
system.cpu.decode.runCycles                    268487                       # Number of cycles decode is running (Cycle)
system.cpu.decode.unblockCycles               2490683                       # Number of cycles decode is unblocking (Cycle)
system.cpu.decode.squashCycles                  32759                       # Number of cycles decode is squashing (Cycle)
system.cpu.decode.branchResolved              1540007                       # Number of times decode resolved a branch (Count)
system.cpu.decode.branchMispred                   653                       # Number of times decode detected a branch misprediction (Count)
system.cpu.decode.decodedInsts               21839482                       # Number of instructions handled by decode (Count)
system.cpu.decode.squashedInsts                  3112                       # Number of squashed instructions handled by decode (Count)
system.cpu.dtb_walker_cache.blockedCycles::no_mshrs            0                       # number of cycles access was blocked (Cycle)
system.cpu.dtb_walker_cache.blockedCycles::no_targets            0                       # number of cycles access was blocked (Cycle)
system.cpu.dtb_walker_cache.blockedCauses::no_mshrs            0                       # number of times access was blocked (Count)
system.cpu.dtb_walker_cache.blockedCauses::no_targets            0                       # number of times access was blocked (Count)
system.cpu.dtb_walker_cache.avgBlocked::no_mshrs          nan                       # average number of cycles each access was blocked ((Cycle/Count))
system.cpu.dtb_walker_cache.avgBlocked::no_targets          nan                       # average number of cycles each access was blocked ((Cycle/Count))
system.cpu.dtb_walker_cache.replacements            0                       # number of replacements (Count)
system.cpu.dtb_walker_cache.power_state.pwrStateResidencyTicks::UNDEFINED  95174333500                       # Cumulative time (in ticks) in various power states (Tick)
system.cpu.dtb_walker_cache.tags.tagsInUse            0                       # Average ticks per tags in use ((Tick/Count))
system.cpu.dtb_walker_cache.tags.totalRefs            0                       # Total number of references to valid blocks. (Count)
system.cpu.dtb_walker_cache.tags.sampledRefs            0                       # Sample count of references to valid blocks. (Count)
system.cpu.dtb_walker_cache.tags.avgRefs          nan                       # Average number of references to valid blocks. ((Count/Count))
system.cpu.dtb_walker_cache.tags.warmupTick            0                       # The tick when the warmup percentage was hit. (Tick)
system.cpu.dtb_walker_cache.tags.tagAccesses            0                       # Number of tag accesses (Count)
system.cpu.dtb_walker_cache.tags.dataAccesses            0                       # Number of data accesses (Count)
system.cpu.dtb_walker_cache.tags.power_state.pwrStateResidencyTicks::UNDEFINED  95174333500                       # Cumulative time (in ticks) in various power states (Tick)
system.cpu.fetch.icacheStallCycles             106352                       # Number of cycles fetch is stalled on an Icache miss (Cycle)
system.cpu.fetch.insts                       11556135                       # Number of instructions fetch has processed (Count)
system.cpu.fetch.branches                     1670429                       # Number of branches that fetch encountered (Count)
system.cpu.fetch.predictedBranches            1615314                       # Number of branches that fetch has predicted taken (Count)
system.cpu.fetch.cycles                     190133141                       # Number of cycles fetch has run and was not squashing or blocked (Cycle)
system.cpu.fetch.squashCycles                   66784                       # Number of cycles fetch has spent squashing (Cycle)
system.cpu.fetch.miscStallCycles                  362                       # Number of cycles fetch has spent waiting on interrupts, or bad addresses, or out of MSHRs (Cycle)
system.cpu.fetch.pendingTrapStallCycles          2707                       # Number of stall cycles due to pending traps (Cycle)
system.cpu.fetch.icacheWaitRetryStallCycles           15                       # Number of stall cycles due to full MSHR (Cycle)
system.cpu.fetch.cacheLines                     65234                       # Number of cache lines fetched (Count)
system.cpu.fetch.icacheSquashes                  3645                       # Number of outstanding Icache misses that were squashed (Count)
system.cpu.fetch.nisnDist::samples          190275969                       # Number of instructions fetched each cycle (Total) (Count)
system.cpu.fetch.nisnDist::mean              0.120785                       # Number of instructions fetched each cycle (Total) (Count)
system.cpu.fetch.nisnDist::stdev             0.887625                       # Number of instructions fetched each cycle (Total) (Count)
system.cpu.fetch.nisnDist::underflows               0      0.00%      0.00% # Number of instructions fetched each cycle (Total) (Count)
system.cpu.fetch.nisnDist::0                186259799     97.89%     97.89% # Number of instructions fetched each cycle (Total) (Count)
system.cpu.fetch.nisnDist::1                    14295      0.01%     97.90% # Number of instructions fetched each cycle (Total) (Count)
system.cpu.fetch.nisnDist::2                   713845      0.38%     98.27% # Number of instructions fetched each cycle (Total) (Count)
system.cpu.fetch.nisnDist::3                    10717      0.01%     98.28% # Number of instructions fetched each cycle (Total) (Count)
system.cpu.fetch.nisnDist::4                   736378      0.39%     98.66% # Number of instructions fetched each cycle (Total) (Count)
system.cpu.fetch.nisnDist::5                    10571      0.01%     98.67% # Number of instructions fetched each cycle (Total) (Count)
system.cpu.fetch.nisnDist::6                   863959      0.45%     99.12% # Number of instructions fetched each cycle (Total) (Count)
system.cpu.fetch.nisnDist::7                     4989      0.00%     99.13% # Number of instructions fetched each cycle (Total) (Count)
system.cpu.fetch.nisnDist::8                  1661416      0.87%    100.00% # Number of instructions fetched each cycle (Total) (Count)
system.cpu.fetch.nisnDist::overflows                0      0.00%    100.00% # Number of instructions fetched each cycle (Total) (Count)
system.cpu.fetch.nisnDist::min_value                0                       # Number of instructions fetched each cycle (Total) (Count)
system.cpu.fetch.nisnDist::max_value                8                       # Number of instructions fetched each cycle (Total) (Count)
system.cpu.fetch.nisnDist::total            190275969                       # Number of instructions fetched each cycle (Total) (Count)
system.cpu.fetch.branchRate                  0.008776                       # Number of branch fetches per cycle (Ratio)
system.cpu.fetch.rate                        0.060710                       # Number of inst fetches per cycle ((Count/Cycle))
system.cpu.icache.demandHits::cpu.inst          62975                       # number of demand (read+write) hits (Count)
system.cpu.icache.demandHits::total             62975                       # number of demand (read+write) hits (Count)
system.cpu.icache.overallHits::cpu.inst         62975                       # number of overall hits (Count)
system.cpu.icache.overallHits::total            62975                       # number of overall hits (Count)
system.cpu.icache.demandMisses::cpu.inst         2259                       # number of demand (read+write) misses (Count)
system.cpu.icache.demandMisses::total            2259                       # number of demand (read+write) misses (Count)
system.cpu.icache.overallMisses::cpu.inst         2259                       # number of overall misses (Count)
system.cpu.icache.overallMisses::total           2259                       # number of overall misses (Count)
system.cpu.icache.demandMissLatency::cpu.inst    123775500                       # number of demand (read+write) miss ticks (Tick)
system.cpu.icache.demandMissLatency::total    123775500                       # number of demand (read+write) miss ticks (Tick)
system.cpu.icache.overallMissLatency::cpu.inst    123775500                       # number of overall miss ticks (Tick)
system.cpu.icache.overallMissLatency::total    123775500                       # number of overall miss ticks (Tick)
system.cpu.icache.demandAccesses::cpu.inst        65234                       # number of demand (read+write) accesses (Count)
system.cpu.icache.demandAccesses::total         65234                       # number of demand (read+write) accesses (Count)
system.cpu.icache.overallAccesses::cpu.inst        65234                       # number of overall (read+write) accesses (Count)
system.cpu.icache.overallAccesses::total        65234                       # number of overall (read+write) accesses (Count)
system.cpu.icache.demandMissRate::cpu.inst     0.034629                       # miss rate for demand accesses (Ratio)
system.cpu.icache.demandMissRate::total      0.034629                       # miss rate for demand accesses (Ratio)
system.cpu.icache.overallMissRate::cpu.inst     0.034629                       # miss rate for overall accesses (Ratio)
system.cpu.icache.overallMissRate::total     0.034629                       # miss rate for overall accesses (Ratio)
system.cpu.icache.demandAvgMissLatency::cpu.inst 54792.164675                       # average overall miss latency in ticks ((Tick/Count))
system.cpu.icache.demandAvgMissLatency::total 54792.164675                       # average overall miss latency in ticks ((Tick/Count))
system.cpu.icache.overallAvgMissLatency::cpu.inst 54792.164675                       # average overall miss latency ((Tick/Count))
system.cpu.icache.overallAvgMissLatency::total 54792.164675                       # average overall miss latency ((Tick/Count))
system.cpu.icache.blockedCycles::no_mshrs          386                       # number of cycles access was blocked (Cycle)
system.cpu.icache.blockedCycles::no_targets            0                       # number of cycles access was blocked (Cycle)
system.cpu.icache.blockedCauses::no_mshrs            3                       # number of times access was blocked (Count)
system.cpu.icache.blockedCauses::no_targets            0                       # number of times access was blocked (Count)
system.cpu.icache.avgBlocked::no_mshrs     128.666667                       # average number of cycles each access was blocked ((Cycle/Count))
system.cpu.icache.avgBlocked::no_targets          nan                       # average number of cycles each access was blocked ((Cycle/Count))
system.cpu.icache.writebacks::writebacks          843                       # number of writebacks (Count)
system.cpu.icache.writebacks::total               843                       # number of writebacks (Count)
system.cpu.icache.demandMshrHits::cpu.inst          911                       # number of demand (read+write) MSHR hits (Count)
system.cpu.icache.demandMshrHits::total           911                       # number of demand (read+write) MSHR hits (Count)
system.cpu.icache.overallMshrHits::cpu.inst          911                       # number of overall MSHR hits (Count)
system.cpu.icache.overallMshrHits::total          911                       # number of overall MSHR hits (Count)
system.cpu.icache.demandMshrMisses::cpu.inst         1348                       # number of demand (read+write) MSHR misses (Count)
system.cpu.icache.demandMshrMisses::total         1348                       # number of demand (read+write) MSHR misses (Count)
system.cpu.icache.overallMshrMisses::cpu.inst         1348                       # number of overall MSHR misses (Count)
system.cpu.icache.overallMshrMisses::total         1348                       # number of overall MSHR misses (Count)
system.cpu.icache.demandMshrMissLatency::cpu.inst     81142000                       # number of demand (read+write) MSHR miss ticks (Tick)
system.cpu.icache.demandMshrMissLatency::total     81142000                       # number of demand (read+write) MSHR miss ticks (Tick)
system.cpu.icache.overallMshrMissLatency::cpu.inst     81142000                       # number of overall MSHR miss ticks (Tick)
system.cpu.icache.overallMshrMissLatency::total     81142000                       # number of overall MSHR miss ticks (Tick)
system.cpu.icache.demandMshrMissRate::cpu.inst     0.020664                       # mshr miss ratio for demand accesses (Ratio)
system.cpu.icache.demandMshrMissRate::total     0.020664                       # mshr miss ratio for demand accesses (Ratio)
system.cpu.icache.overallMshrMissRate::cpu.inst     0.020664                       # mshr miss ratio for overall accesses (Ratio)
system.cpu.icache.overallMshrMissRate::total     0.020664                       # mshr miss ratio for overall accesses (Ratio)
system.cpu.icache.demandAvgMshrMissLatency::cpu.inst 60194.362018                       # average overall mshr miss latency ((Tick/Count))
system.cpu.icache.demandAvgMshrMissLatency::total 60194.362018                       # average overall mshr miss latency ((Tick/Count))
system.cpu.icache.overallAvgMshrMissLatency::cpu.inst 60194.362018                       # average overall mshr miss latency ((Tick/Count))
system.cpu.icache.overallAvgMshrMissLatency::total 60194.362018                       # average overall mshr miss latency ((Tick/Count))
system.cpu.icache.replacements                    843                       # number of replacements (Count)
system.cpu.icache.ReadReq.hits::cpu.inst        62975                       # number of ReadReq hits (Count)
system.cpu.icache.ReadReq.hits::total           62975                       # number of ReadReq hits (Count)
system.cpu.icache.ReadReq.misses::cpu.inst         2259                       # number of ReadReq misses (Count)
system.cpu.icache.ReadReq.misses::total          2259                       # number of ReadReq misses (Count)
system.cpu.icache.ReadReq.missLatency::cpu.inst    123775500                       # number of ReadReq miss ticks (Tick)
system.cpu.icache.ReadReq.missLatency::total    123775500                       # number of ReadReq miss ticks (Tick)
system.cpu.icache.ReadReq.accesses::cpu.inst        65234                       # number of ReadReq accesses(hits+misses) (Count)
system.cpu.icache.ReadReq.accesses::total        65234                       # number of ReadReq accesses(hits+misses) (Count)
system.cpu.icache.ReadReq.missRate::cpu.inst     0.034629                       # miss rate for ReadReq accesses (Ratio)
system.cpu.icache.ReadReq.missRate::total     0.034629                       # miss rate for ReadReq accesses (Ratio)
system.cpu.icache.ReadReq.avgMissLatency::cpu.inst 54792.164675                       # average ReadReq miss latency ((Tick/Count))
system.cpu.icache.ReadReq.avgMissLatency::total 54792.164675                       # average ReadReq miss latency ((Tick/Count))
system.cpu.icache.ReadReq.mshrHits::cpu.inst          911                       # number of ReadReq MSHR hits (Count)
system.cpu.icache.ReadReq.mshrHits::total          911                       # number of ReadReq MSHR hits (Count)
system.cpu.icache.ReadReq.mshrMisses::cpu.inst         1348                       # number of ReadReq MSHR misses (Count)
system.cpu.icache.ReadReq.mshrMisses::total         1348                       # number of ReadReq MSHR misses (Count)
system.cpu.icache.ReadReq.mshrMissLatency::cpu.inst     81142000                       # number of ReadReq MSHR miss ticks (Tick)
system.cpu.icache.ReadReq.mshrMissLatency::total     81142000                       # number of ReadReq MSHR miss ticks (Tick)
system.cpu.icache.ReadReq.mshrMissRate::cpu.inst     0.020664                       # mshr miss rate for ReadReq accesses (Ratio)
system.cpu.icache.ReadReq.mshrMissRate::total     0.020664                       # mshr miss rate for ReadReq accesses (Ratio)
system.cpu.icache.ReadReq.avgMshrMissLatency::cpu.inst 60194.362018                       # average ReadReq mshr miss latency ((Tick/Count))
system.cpu.icache.ReadReq.avgMshrMissLatency::total 60194.362018                       # average ReadReq mshr miss latency ((Tick/Count))
system.cpu.icache.power_state.pwrStateResidencyTicks::UNDEFINED  95174333500                       # Cumulative time (in ticks) in various power states (Tick)
system.cpu.icache.tags.tagsInUse           504.818080                       # Average ticks per tags in use ((Tick/Count))
system.cpu.icache.tags.totalRefs                64323                       # Total number of references to valid blocks. (Count)
system.cpu.icache.tags.sampledRefs               1348                       # Sample count of references to valid blocks. (Count)
system.cpu.icache.tags.avgRefs              47.717359                       # Average number of references to valid blocks. ((Count/Count))
system.cpu.icache.tags.warmupTick               77000                       # The tick when the warmup percentage was hit. (Tick)
system.cpu.icache.tags.occupancies::cpu.inst   504.818080                       # Average occupied blocks per tick, per requestor ((Count/Tick))
system.cpu.icache.tags.avgOccs::cpu.inst     0.985973                       # Average percentage of cache occupancy ((Ratio/Tick))
system.cpu.icache.tags.avgOccs::total        0.985973                       # Average percentage of cache occupancy ((Ratio/Tick))
system.cpu.icache.tags.occupanciesTaskId::1024          505                       # Occupied blocks per task id (Count)
system.cpu.icache.tags.ageTaskId_1024::4          505                       # Occupied blocks per task id, per block age (Count)
system.cpu.icache.tags.ratioOccsTaskId::1024     0.986328                       # Ratio of occupied blocks and all blocks, per task id (Ratio)
system.cpu.icache.tags.tagAccesses             131816                       # Number of tag accesses (Count)
system.cpu.icache.tags.dataAccesses            131816                       # Number of data accesses (Count)
system.cpu.icache.tags.power_state.pwrStateResidencyTicks::UNDEFINED  95174333500                       # Cumulative time (in ticks) in various power states (Tick)
system.cpu.iew.idleCycles                           0                       # Number of cycles IEW is idle (Cycle)
system.cpu.iew.squashCycles                     32759                       # Number of cycles IEW is squashing (Cycle)
system.cpu.iew.blockCycles                     229943                       # Number of cycles IEW is blocking (Cycle)
system.cpu.iew.unblockCycles                 82194871                       # Number of cycles IEW is unblocking (Cycle)
system.cpu.iew.dispatchedInsts               21594754                       # Number of instructions dispatched to IQ (Count)
system.cpu.iew.dispSquashedInsts                  648                       # Number of squashed instructions skipped by dispatch (Count)
system.cpu.iew.dispLoadInsts                   107530                       # Number of dispatched load instructions (Count)
system.cpu.iew.dispStoreInsts                11942984                       # Number of dispatched store instructions (Count)
system.cpu.iew.dispNonSpecInsts                   123                       # Number of dispatched non-speculative instructions (Count)
system.cpu.iew.iqFullEvents                       475                       # Number of times the IQ has become full, causing a stall (Count)
system.cpu.iew.lsqFullEvents                 82215889                       # Number of times the LSQ has become full, causing a stall (Count)
system.cpu.iew.memOrderViolationEvents             98                       # Number of memory order violations (Count)
system.cpu.iew.predictedTakenIncorrect           2569                       # Number of branches that were predicted taken incorrectly (Count)
system.cpu.iew.predictedNotTakenIncorrect         4469                       # Number of branches that were predicted not taken incorrectly (Count)
system.cpu.iew.branchMispredicts                 7038                       # Number of branch mispredicts detected at execute (Count)
system.cpu.iew.mispredictedLVP                   6496                       # mispredictedLVP (Count)
system.cpu.iew.LvpCorrect                       28839                       # LvpCorrect (Count)
system.cpu.iew.instsToCommit                 21425686                       # Cumulative count of insts sent to commit (Count)
system.cpu.iew.writebackCount                20763734                       # Cumulative count of insts written-back (Count)
system.cpu.iew.producerInst                   7648419                       # Number of instructions producing a value (Count)
system.cpu.iew.consumerInst                   9980706                       # Number of instructions consuming a value (Count)
system.cpu.iew.wbRate                        0.109083                       # Insts written-back per cycle ((Count/Cycle))
system.cpu.iew.wbFanout                      0.766320                       # Average fanout of values written-back ((Count/Count))
system.cpu.interrupts.clk_domain.clock           8000                       # Clock period in ticks (Tick)
system.cpu.itb_walker_cache.blockedCycles::no_mshrs            0                       # number of cycles access was blocked (Cycle)
system.cpu.itb_walker_cache.blockedCycles::no_targets            0                       # number of cycles access was blocked (Cycle)
system.cpu.itb_walker_cache.blockedCauses::no_mshrs            0                       # number of times access was blocked (Count)
system.cpu.itb_walker_cache.blockedCauses::no_targets            0                       # number of times access was blocked (Count)
system.cpu.itb_walker_cache.avgBlocked::no_mshrs          nan                       # average number of cycles each access was blocked ((Cycle/Count))
system.cpu.itb_walker_cache.avgBlocked::no_targets          nan                       # average number of cycles each access was blocked ((Cycle/Count))
system.cpu.itb_walker_cache.replacements            0                       # number of replacements (Count)
system.cpu.itb_walker_cache.power_state.pwrStateResidencyTicks::UNDEFINED  95174333500                       # Cumulative time (in ticks) in various power states (Tick)
system.cpu.itb_walker_cache.tags.tagsInUse            0                       # Average ticks per tags in use ((Tick/Count))
system.cpu.itb_walker_cache.tags.totalRefs            0                       # Total number of references to valid blocks. (Count)
system.cpu.itb_walker_cache.tags.sampledRefs            0                       # Sample count of references to valid blocks. (Count)
system.cpu.itb_walker_cache.tags.avgRefs          nan                       # Average number of references to valid blocks. ((Count/Count))
system.cpu.itb_walker_cache.tags.warmupTick            0                       # The tick when the warmup percentage was hit. (Tick)
system.cpu.itb_walker_cache.tags.tagAccesses            0                       # Number of tag accesses (Count)
system.cpu.itb_walker_cache.tags.dataAccesses            0                       # Number of data accesses (Count)
system.cpu.itb_walker_cache.tags.power_state.pwrStateResidencyTicks::UNDEFINED  95174333500                       # Cumulative time (in ticks) in various power states (Tick)
system.cpu.lsq0.forwLoads                        3883                       # Number of loads that had data forwarded from stores (Count)
system.cpu.lsq0.squashedLoads                   56132                       # Number of loads squashed (Count)
system.cpu.lsq0.ignoredResponses                   97                       # Number of memory responses ignored because the instruction is squashed (Count)
system.cpu.lsq0.memOrderViolation                  98                       # Number of memory ordering violations (Count)
system.cpu.lsq0.squashedStores                 715717                       # Number of stores squashed (Count)
system.cpu.lsq0.rescheduledLoads                   21                       # Number of loads that were rescheduled (Count)
system.cpu.lsq0.blockedByCache                    268                       # Number of times an access to memory failed due to the cache being blocked (Count)
system.cpu.lsq0.loadToUse::samples              51398                       # Distribution of cycle latency between the first time a load is issued and its completion (Unspecified)
system.cpu.lsq0.loadToUse::mean             15.863497                       # Distribution of cycle latency between the first time a load is issued and its completion (Unspecified)
system.cpu.lsq0.loadToUse::stdev            43.484673                       # Distribution of cycle latency between the first time a load is issued and its completion (Unspecified)
system.cpu.lsq0.loadToUse::0-9                  45529     88.58%     88.58% # Distribution of cycle latency between the first time a load is issued and its completion (Unspecified)
system.cpu.lsq0.loadToUse::10-19                  278      0.54%     89.12% # Distribution of cycle latency between the first time a load is issued and its completion (Unspecified)
system.cpu.lsq0.loadToUse::20-29                  160      0.31%     89.43% # Distribution of cycle latency between the first time a load is issued and its completion (Unspecified)
system.cpu.lsq0.loadToUse::30-39                   94      0.18%     89.62% # Distribution of cycle latency between the first time a load is issued and its completion (Unspecified)
system.cpu.lsq0.loadToUse::40-49                   94      0.18%     89.80% # Distribution of cycle latency between the first time a load is issued and its completion (Unspecified)
system.cpu.lsq0.loadToUse::50-59                  145      0.28%     90.08% # Distribution of cycle latency between the first time a load is issued and its completion (Unspecified)
system.cpu.lsq0.loadToUse::60-69                  172      0.33%     90.42% # Distribution of cycle latency between the first time a load is issued and its completion (Unspecified)
system.cpu.lsq0.loadToUse::70-79                  155      0.30%     90.72% # Distribution of cycle latency between the first time a load is issued and its completion (Unspecified)
system.cpu.lsq0.loadToUse::80-89                  364      0.71%     91.43% # Distribution of cycle latency between the first time a load is issued and its completion (Unspecified)
[...]
system.mem_ctrls.dram.perBankWrBursts::1        87611                       # Per bank write bursts (Count)
system.mem_ctrls.dram.perBankWrBursts::2        87630                       # Per bank write bursts (Count)
system.mem_ctrls.dram.perBankWrBursts::3        87613                       # Per bank write bursts (Count)
system.mem_ctrls.dram.perBankWrBursts::4        87606                       # Per bank write bursts (Count)
system.mem_ctrls.dram.perBankWrBursts::5        87625                       # Per bank write bursts (Count)
system.mem_ctrls.dram.perBankWrBursts::6        87630                       # Per bank write bursts (Count)
system.mem_ctrls.dram.perBankWrBursts::7        87529                       # Per bank write bursts (Count)
system.mem_ctrls.dram.perBankWrBursts::8        87598                       # Per bank write bursts (Count)
system.mem_ctrls.dram.perBankWrBursts::9        87517                       # Per bank write bursts (Count)
system.mem_ctrls.dram.perBankWrBursts::10        87480                       # Per bank write bursts (Count)
system.mem_ctrls.dram.perBankWrBursts::11        87538                       # Per bank write bursts (Count)
system.mem_ctrls.dram.perBankWrBursts::12        87532                       # Per bank write bursts (Count)
system.mem_ctrls.dram.perBankWrBursts::13        87511                       # Per bank write bursts (Count)
system.mem_ctrls.dram.perBankWrBursts::14        87597                       # Per bank write bursts (Count)
system.mem_ctrls.dram.perBankWrBursts::15        87628                       # Per bank write bursts (Count)
system.mem_ctrls.dram.totQLat             13367271250                       # Total ticks spent queuing (Tick)
system.mem_ctrls.dram.totBusLat            7025530000                       # Total ticks spent in databus transfers (Tick)
system.mem_ctrls.dram.totMemAccLat        39713008750                       # Total ticks spent from burst creation until serviced by the DRAM (Tick)
system.mem_ctrls.dram.avgQLat                 9513.35                       # Average queueing delay per DRAM burst ((Tick/Count))
system.mem_ctrls.dram.avgBusLat               5000.00                       # Average bus latency per DRAM burst ((Tick/Count))
system.mem_ctrls.dram.avgMemAccLat           28263.35                       # Average memory access latency per DRAM burst ((Tick/Count))
system.mem_ctrls.dram.readRowHits             1305481                       # Number of row buffer hits during reads (Count)
system.mem_ctrls.dram.writeRowHits            1303172                       # Number of row buffer hits during writes (Count)
system.mem_ctrls.dram.readRowHitRate            92.91                       # Row buffer hit rate for reads (Ratio)
system.mem_ctrls.dram.writeRowHitRate           93.00                       # Row buffer hit rate for writes (Ratio)
system.mem_ctrls.dram.bytesPerActivate::samples       197727                       # Bytes accessed per row activation (Byte)
system.mem_ctrls.dram.bytesPerActivate::mean   908.358373                       # Bytes accessed per row activation (Byte)
system.mem_ctrls.dram.bytesPerActivate::gmean   829.479565                       # Bytes accessed per row activation (Byte)
system.mem_ctrls.dram.bytesPerActivate::stdev   254.362372                       # Bytes accessed per row activation (Byte)
system.mem_ctrls.dram.bytesPerActivate::0-127         3554      1.80%      1.80% # Bytes accessed per row activation (Byte)
system.mem_ctrls.dram.bytesPerActivate::128-255         6191      3.13%      4.93% # Bytes accessed per row activation (Byte)
system.mem_ctrls.dram.bytesPerActivate::256-383         5569      2.82%      7.75% # Bytes accessed per row activation (Byte)
system.mem_ctrls.dram.bytesPerActivate::384-511         5783      2.92%     10.67% # Bytes accessed per row activation (Byte)
system.mem_ctrls.dram.bytesPerActivate::512-639         6367      3.22%     13.89% # Bytes accessed per row activation (Byte)
system.mem_ctrls.dram.bytesPerActivate::640-767         5597      2.83%     16.72% # Bytes accessed per row activation (Byte)
system.mem_ctrls.dram.bytesPerActivate::768-895         4834      2.44%     19.17% # Bytes accessed per row activation (Byte)
system.mem_ctrls.dram.bytesPerActivate::896-1023         4861      2.46%     21.62% # Bytes accessed per row activation (Byte)
system.mem_ctrls.dram.bytesPerActivate::1024-1151       154971     78.38%    100.00% # Bytes accessed per row activation (Byte)
system.mem_ctrls.dram.bytesPerActivate::total       197727                       # Bytes accessed per row activation (Byte)
system.mem_ctrls.dram.bytesRead              89926784                       # Total bytes read (Byte)
system.mem_ctrls.dram.bytesWritten           89681728                       # Total bytes written (Byte)
system.mem_ctrls.dram.avgRdBW              944.863817                       # Average DRAM read bandwidth in MiBytes/s ((Byte/Second))
system.mem_ctrls.dram.avgWrBW              942.289005                       # Average DRAM write bandwidth in MiBytes/s ((Byte/Second))
system.mem_ctrls.dram.peakBW                 12800.00                       # Theoretical peak bandwidth in MiByte/s ((Byte/Second))
system.mem_ctrls.dram.busUtil                   14.74                       # Data bus utilization in percentage (Ratio)
system.mem_ctrls.dram.busUtilRead                7.38                       # Data bus utilization in percentage for reads (Ratio)
system.mem_ctrls.dram.busUtilWrite               7.36                       # Data bus utilization in percentage for writes (Ratio)
system.mem_ctrls.dram.pageHitRate               92.95                       # Row buffer hit rate, read and write combined (Ratio)
system.mem_ctrls.dram.power_state.pwrStateResidencyTicks::UNDEFINED  95174333500                       # Cumulative time (in ticks) in various power states (Tick)
system.mem_ctrls.dram.rank0.actEnergy       706388760                       # Energy for activate commands per rank (pJ) (Joule)
system.mem_ctrls.dram.rank0.preEnergy       375446940                       # Energy for precharge commands per rank (pJ) (Joule)
system.mem_ctrls.dram.rank0.readEnergy     5017649280                       # Energy for read commands per rank (pJ) (Joule)
system.mem_ctrls.dram.rank0.writeEnergy    3658572720                       # Energy for write commands per rank (pJ) (Joule)
system.mem_ctrls.dram.rank0.refreshEnergy 7512744720.000001                       # Energy for refresh commands per rank (pJ) (Joule)
system.mem_ctrls.dram.rank0.actBackEnergy  33122205810                       # Energy for active background per rank (pJ) (Joule)
system.mem_ctrls.dram.rank0.preBackEnergy   8654560320                       # Energy for precharge background per rank (pJ) (Joule)
system.mem_ctrls.dram.rank0.actPowerDownEnergy            0                       # Energy for active power-down per rank (pJ) (Joule)
system.mem_ctrls.dram.rank0.prePowerDownEnergy            0                       # Energy for precharge power-down per rank (pJ) (Joule)
system.mem_ctrls.dram.rank0.selfRefreshEnergy            0                       # Energy for self refresh per rank (pJ) (Joule)
system.mem_ctrls.dram.rank0.totalEnergy   59047568550                       # Total energy per rank (pJ) (Joule)
system.mem_ctrls.dram.rank0.averagePower   620.414836                       # Core power per rank (mW) (Watt)
system.mem_ctrls.dram.rank0.totalIdleTime            0                       # Total Idle time Per DRAM Rank (Tick)
system.mem_ctrls.dram.rank0.pwrStateTime::IDLE  21581385500                       # Time in different power states (Tick)
system.mem_ctrls.dram.rank0.pwrStateTime::REF   3177980000                       # Time in different power states (Tick)
system.mem_ctrls.dram.rank0.pwrStateTime::SREF            0                       # Time in different power states (Tick)
system.mem_ctrls.dram.rank0.pwrStateTime::PRE_PDN            0                       # Time in different power states (Tick)
system.mem_ctrls.dram.rank0.pwrStateTime::ACT  70414968000                       # Time in different power states (Tick)
system.mem_ctrls.dram.rank0.pwrStateTime::ACT_PDN            0                       # Time in different power states (Tick)
system.mem_ctrls.dram.rank1.actEnergy       705403440                       # Energy for activate commands per rank (pJ) (Joule)
system.mem_ctrls.dram.rank1.preEnergy       374927025                       # Energy for precharge commands per rank (pJ) (Joule)
system.mem_ctrls.dram.rank1.readEnergy     5014807560                       # Energy for read commands per rank (pJ) (Joule)
system.mem_ctrls.dram.rank1.writeEnergy    3656093220                       # Energy for write commands per rank (pJ) (Joule)
system.mem_ctrls.dram.rank1.refreshEnergy 7512744720.000001                       # Energy for refresh commands per rank (pJ) (Joule)
system.mem_ctrls.dram.rank1.actBackEnergy  33135364830                       # Energy for active background per rank (pJ) (Joule)
system.mem_ctrls.dram.rank1.preBackEnergy   8643479040                       # Energy for precharge background per rank (pJ) (Joule)
system.mem_ctrls.dram.rank1.actPowerDownEnergy            0                       # Energy for active power-down per rank (pJ) (Joule)
system.mem_ctrls.dram.rank1.prePowerDownEnergy            0                       # Energy for precharge power-down per rank (pJ) (Joule)
system.mem_ctrls.dram.rank1.selfRefreshEnergy            0                       # Energy for self refresh per rank (pJ) (Joule)
system.mem_ctrls.dram.rank1.totalEnergy   59042819835                       # Total energy per rank (pJ) (Joule)
system.mem_ctrls.dram.rank1.averagePower   620.364942                       # Core power per rank (mW) (Watt)
system.mem_ctrls.dram.rank1.totalIdleTime            0                       # Total Idle time Per DRAM Rank (Tick)
system.mem_ctrls.dram.rank1.pwrStateTime::IDLE  21552738250                       # Time in different power states (Tick)
system.mem_ctrls.dram.rank1.pwrStateTime::REF   3177980000                       # Time in different power states (Tick)
system.mem_ctrls.dram.rank1.pwrStateTime::SREF            0                       # Time in different power states (Tick)
system.mem_ctrls.dram.rank1.pwrStateTime::PRE_PDN            0                       # Time in different power states (Tick)
system.mem_ctrls.dram.rank1.pwrStateTime::ACT  70443615250                       # Time in different power states (Tick)
system.mem_ctrls.dram.rank1.pwrStateTime::ACT_PDN            0                       # Time in different power states (Tick)
system.mem_ctrls.power_state.pwrStateResidencyTicks::UNDEFINED  95174333500                       # Cumulative time (in ticks) in various power states (Tick)
system.membus.transDist::ReadResp                3794                       # Transaction distribution (Count)
system.membus.transDist::WritebackDirty       1400519                       # Transaction distribution (Count)
system.membus.transDist::WritebackClean           843                       # Transaction distribution (Count)
system.membus.transDist::CleanEvict              2340                       # Transaction distribution (Count)
system.membus.transDist::ReadExReq            1401437                       # Transaction distribution (Count)
system.membus.transDist::ReadExResp           1401437                       # Transaction distribution (Count)
system.membus.transDist::ReadCleanReq            1348                       # Transaction distribution (Count)
system.membus.transDist::ReadSharedReq           2446                       # Transaction distribution (Count)
system.membus.pktCount_system.cpu.icache.mem_side_port::system.mem_ctrls.port         3539                       # Packet count per connected requestor and responder (Count)
system.membus.pktCount_system.cpu.icache.mem_side_port::total         3539                       # Packet count per connected requestor and responder (Count)
system.membus.pktCount_system.cpu.dcache.mem_side_port::system.mem_ctrls.port      4210625                       # Packet count per connected requestor and responder (Count)
system.membus.pktCount_system.cpu.dcache.mem_side_port::total      4210625                       # Packet count per connected requestor and responder (Count)
system.membus.pktCount::total                 4214164                       # Packet count per connected requestor and responder (Count)
system.membus.pktSize_system.cpu.icache.mem_side_port::system.mem_ctrls.port       140224                       # Cumulative packet size per connected requestor and responder (Byte)
system.membus.pktSize_system.cpu.icache.mem_side_port::total       140224                       # Cumulative packet size per connected requestor and responder (Byte)
system.membus.pktSize_system.cpu.dcache.mem_side_port::system.mem_ctrls.port    179481728                       # Cumulative packet size per connected requestor and responder (Byte)
system.membus.pktSize_system.cpu.dcache.mem_side_port::total    179481728                       # Cumulative packet size per connected requestor and responder (Byte)
system.membus.pktSize::total                179621952                       # Cumulative packet size per connected requestor and responder (Byte)
system.membus.snoops                                0                       # Total snoops (Count)
system.membus.snoopTraffic                          0                       # Total snoop traffic (Byte)
system.membus.snoopFanout::samples            1405231                       # Request fanout histogram (Count)
system.membus.snoopFanout::mean              0.000004                       # Request fanout histogram (Count)
system.membus.snoopFanout::stdev             0.001886                       # Request fanout histogram (Count)
system.membus.snoopFanout::underflows               0      0.00%      0.00% # Request fanout histogram (Count)
system.membus.snoopFanout::0                  1405226    100.00%    100.00% # Request fanout histogram (Count)
system.membus.snoopFanout::1                        5      0.00%    100.00% # Request fanout histogram (Count)
system.membus.snoopFanout::2                        0      0.00%    100.00% # Request fanout histogram (Count)
system.membus.snoopFanout::3                        0      0.00%    100.00% # Request fanout histogram (Count)
system.membus.snoopFanout::4                        0      0.00%    100.00% # Request fanout histogram (Count)
system.membus.snoopFanout::overflows                0      0.00%    100.00% # Request fanout histogram (Count)
system.membus.snoopFanout::min_value                0                       # Request fanout histogram (Count)
system.membus.snoopFanout::max_value                1                       # Request fanout histogram (Count)
system.membus.snoopFanout::total              1405231                       # Request fanout histogram (Count)
system.membus.power_state.pwrStateResidencyTicks::UNDEFINED  95174333500                       # Cumulative time (in ticks) in various power states (Tick)
system.membus.reqLayer2.occupancy          8415156500                       # Layer occupancy (ticks) (Tick)
system.membus.reqLayer2.utilization               0.1                       # Layer utilization (Ratio)
system.membus.respLayer1.occupancy            7125249                       # Layer occupancy (ticks) (Tick)
system.membus.respLayer1.utilization              0.0                       # Layer utilization (Ratio)
system.membus.respLayer2.occupancy         7389672000                       # Layer occupancy (ticks) (Tick)
system.membus.respLayer2.utilization              0.1                       # Layer utilization (Ratio)
system.membus.snoop_filter.totRequests        2808933                       # Total number of requests made to the snoop filter. (Count)
system.membus.snoop_filter.hitSingleRequests      1403702                       # Number of requests hitting in the snoop filter with a single holder of the requested data. (Count)
system.membus.snoop_filter.hitMultiRequests            5                       # Number of requests hitting in the snoop filter with multiple (>1) holders of the requested data. (Count)
system.membus.snoop_filter.totSnoops                0                       # Total number of snoops made to the snoop filter. (Count)
system.membus.snoop_filter.hitSingleSnoops            0                       # Number of snoops hitting in the snoop filter with a single holder of the requested data. (Count)
system.membus.snoop_filter.hitMultiSnoops            0                       # Number of snoops hitting in the snoop filter with multiple (>1) holders of the requested data. (Count)
system.voltage_domain.voltage                       1                       # Voltage in Volts (Volt)
system.workload.inst.arm                            0                       # number of arm instructions executed (Count)
system.workload.inst.quiesce                        0                       # number of quiesce instructions executed (Count)
system.cpu.loadValPred.constant_verification_unit.constLoadHits        12557                       # Number of loads marked constant that hit in the CVU CAM (Unspecified)
system.cpu.loadValPred.constant_verification_unit.constLoadMisses         9738                       # Number of loads marked constant that missed in the CVU CAM (Unspecified)
system.cpu.loadValPred.constant_verification_unit.numCAMReplacements         6709                       # Number of CVU CAM entries replaced (Unspecified)
system.cpu.loadValPred.constant_verification_unit.numLoadAccesses        22295                       # Number of loads marked constant which accessed the CVU (Unspecified)
system.cpu.loadValPred.constant_verification_unit.numStoreAccesses     11279192                       # Number of store instructions which accessed the CVU (Unspecified)
system.cpu.loadValPred.constant_verification_unit.numStoreHits         3038                       # Number of stores that hit in the CVU CAM (Unspecified)
system.cpu.loadValPred.constant_verification_unit.numStoreMisses     11276154                       # Number of stores that missed in the CVU CAM (Unspecified)
system.cpu.loadValPred.correctTotal             28839                       # Number predictions corrects for predictable verification (Unspecified)
system.cpu.loadValPred.numConstLoads            25236                       # Number of loads classified as constant (Unspecified)
system.cpu.loadValPred.numConstLoadsCorrect        12557                       # Number of constant loads correctly predicted (Unspecified)
system.cpu.loadValPred.numConstLoadsMispredicted         9738                       # Number of constant loads incorrectly predicted (Unspecified)
system.cpu.loadValPred.numConstValOne             397                       # Number of constant loads with value 1 (Unspecified)
system.cpu.loadValPred.numConstValZero           2514                       # Number of constant loads with value 0 (Unspecified)
system.cpu.loadValPred.numPredictableLoads        14999                       # Number of loads classified as predictable (Unspecified)
system.cpu.loadValPred.numPredictableLoadsCorrect         9590                       # Number of loads correctly classified as predictable (Unspecified)
system.cpu.loadValPred.numPredictableLoadsIncorrect         3450                       # Number of loads incorrectly classified as predictable (Unspecified)
system.cpu.loadValPred.totalLoads               86819                       # Total loads processed by the Load value predictor (Unspecified)
system.cpu.loadValPred.valueLocalityNumerator        39361                       # Number predictions corrects (Unspecified)

---------- End Simulation Statistics   ----------
