
---------- Begin Simulation Statistics ----------
simSeconds                                   0.095155                       # Number of seconds simulated (Second)
simTicks                                  95154978500                       # Number of ticks simulated (Tick)
finalTick                                 95154978500                       # Number of ticks from beginning of simulation (restored from checkpoints and never reset) (Tick)
simFreq                                  1000000000000                       # The number of ticks per simulated second ((Tick/Second))
hostSeconds                                    454.88                       # Real time elapsed on the host (Second)
hostTickRate                                209186291                       # The number of ticks simulated per host second (ticks/s) ((Tick/Second))
hostMemory                                    8729636                       # Number of bytes of host memory used (Byte)
simInsts                                     10000000                       # Number of instructions simulated (Count)
simOps                                       19972351                       # Number of ops (including micro ops) simulated (Count)
hostInstRate                                    21984                       # Simulator instruction rate (inst/s) ((Count/Second))
hostOpRate                                      43907                       # Simulator op (including micro ops) rate (op/s) ((Count/Second))
system.clk_domain.clock                          1000                       # Clock period in ticks (Tick)
system.cpu.numCycles                        190309958                       # Number of cpu cycles simulated (Cycle)
system.cpu.numWorkItemsStarted                      0                       # Number of work items this cpu started (Count)
system.cpu.numWorkItemsCompleted                    0                       # Number of work items this cpu completed (Count)
system.cpu.instsAdded                        21474776                       # Number of instructions added to the IQ (excludes non-spec) (Count)
system.cpu.nonSpecInstsAdded                      159                       # Number of non-speculative instructions added to the IQ (Count)
system.cpu.instsIssued                       21384266                       # Number of instructions issued (Count)
system.cpu.squashedInstsIssued                   1040                       # Number of squashed instructions issued (Count)
system.cpu.squashedInstsExamined              1502583                       # Number of squashed instructions iterated over during squash; mainly for profiling (Count)
system.cpu.squashedOperandsExamined           3199687                       # Number of squashed operands that are examined and possibly removed from graph (Count)
system.cpu.squashedNonSpecRemoved                  96                       # Number of squashed non-spec instructions that were removed (Count)
system.cpu.numIssuedDist::samples           190232535                       # Number of insts issued each cycle (Count)
system.cpu.numIssuedDist::mean               0.112411                       # Number of insts issued each cycle (Count)
system.cpu.numIssuedDist::stdev              0.462496                       # Number of insts issued each cycle (Count)
system.cpu.numIssuedDist::underflows                0      0.00%      0.00% # Number of insts issued each cycle (Count)
system.cpu.numIssuedDist::0                 174185026     91.56%     91.56% # Number of insts issued each cycle (Count)
system.cpu.numIssuedDist::1                  13822139      7.27%     98.83% # Number of insts issued each cycle (Count)
system.cpu.numIssuedDist::2                    526824      0.28%     99.11% # Number of insts issued each cycle (Count)
system.cpu.numIssuedDist::3                    752070      0.40%     99.50% # Number of insts issued each cycle (Count)
system.cpu.numIssuedDist::4                    767163      0.40%     99.91% # Number of insts issued each cycle (Count)
system.cpu.numIssuedDist::5                     62848      0.03%     99.94% # Number of insts issued each cycle (Count)
system.cpu.numIssuedDist::6                     16300      0.01%     99.95% # Number of insts issued each cycle (Count)
system.cpu.numIssuedDist::7                     29743      0.02%     99.96% # Number of insts issued each cycle (Count)
system.cpu.numIssuedDist::8                     70422      0.04%    100.00% # Number of insts issued each cycle (Count)
system.cpu.numIssuedDist::overflows                 0      0.00%    100.00% # Number of insts issued each cycle (Count)
system.cpu.numIssuedDist::min_value                 0                       # Number of insts issued each cycle (Count)
system.cpu.numIssuedDist::max_value                 8                       # Number of insts issued each cycle (Count)
system.cpu.numIssuedDist::total             190232535                       # Number of insts issued each cycle (Count)
system.cpu.statFuBusy::No_OpClass                   0      0.00%      0.00% # attempts to use FU when none available (Count)
system.cpu.statFuBusy::IntAlu                    5417      4.65%      4.65% # attempts to use FU when none available (Count)
system.cpu.statFuBusy::IntMult                      0      0.00%      4.65% # attempts to use FU when none available (Count)
system.cpu.statFuBusy::IntDiv                       0      0.00%      4.65% # attempts to use FU when none available (Count)
system.cpu.statFuBusy::FloatAdd                     0      0.00%      4.65% # attempts to use FU when none available (Count)
system.cpu.statFuBusy::FloatCmp                     0      0.00%      4.65% # attempts to use FU when none available (Count)
system.cpu.statFuBusy::FloatCvt                     0      0.00%      4.65% # attempts to use FU when none available (Count)
system.cpu.statFuBusy::FloatMult                    0      0.00%      4.65% # attempts to use FU when none available (Count)
system.cpu.statFuBusy::FloatMultAcc                 0      0.00%      4.65% # attempts to use FU when none available (Count)
system.cpu.statFuBusy::FloatDiv                     0      0.00%      4.65% # attempts to use FU when none available (Count)
system.cpu.statFuBusy::FloatMisc                    0      0.00%      4.65% # attempts to use FU when none available (Count)
system.cpu.statFuBusy::FloatSqrt                    0      0.00%      4.65% # attempts to use FU when none available (Count)
system.cpu.statFuBusy::SimdAdd                      0      0.00%      4.65% # attempts to use FU when none available (Count)
system.cpu.statFuBusy::SimdAddAcc                   0      0.00%      4.65% # attempts to use FU when none available (Count)
system.cpu.statFuBusy::SimdAlu                      3      0.00%      4.65% # attempts to use FU when none available (Count)
system.cpu.statFuBusy::SimdCmp                      0      0.00%      4.65% # attempts to use FU when none available (Count)
system.cpu.statFuBusy::SimdCvt                      0      0.00%      4.65% # attempts to use FU when none available (Count)
system.cpu.statFuBusy::SimdMisc                     0      0.00%      4.65% # attempts to use FU when none available (Count)
system.cpu.statFuBusy::SimdMult                     0      0.00%      4.65% # attempts to use FU when none available (Count)
system.cpu.statFuBusy::SimdMultAcc                  0      0.00%      4.65% # attempts to use FU when none available (Count)
system.cpu.statFuBusy::SimdShift                    0      0.00%      4.65% # attempts to use FU when none available (Count)
system.cpu.statFuBusy::SimdShiftAcc                 0      0.00%      4.65% # attempts to use FU when none available (Count)
system.cpu.statFuBusy::SimdDiv                      0      0.00%      4.65% # attempts to use FU when none available (Count)
system.cpu.statFuBusy::SimdSqrt                     0      0.00%      4.65% # attempts to use FU when none available (Count)
system.cpu.statFuBusy::SimdFloatAdd                 0      0.00%      4.65% # attempts to use FU when none available (Count)
system.cpu.statFuBusy::SimdFloatAlu                 0      0.00%      4.65% # attempts to use FU when none available (Count)
system.cpu.statFuBusy::SimdFloatCmp                 0      0.00%      4.65% # attempts to use FU when none available (Count)
system.cpu.statFuBusy::SimdFloatCvt                 0      0.00%      4.65% # attempts to use FU when none available (Count)
system.cpu.statFuBusy::SimdFloatDiv                 0      0.00%      4.65% # attempts to use FU when none available (Count)
system.cpu.statFuBusy::SimdFloatMisc                0      0.00%      4.65% # attempts to use FU when none available (Count)
system.cpu.statFuBusy::SimdFloatMult                0      0.00%      4.65% # attempts to use FU when none available (Count)
system.cpu.statFuBusy::SimdFloatMultAcc             0      0.00%      4.65% # attempts to use FU when none available (Count)
system.cpu.statFuBusy::SimdFloatSqrt                0      0.00%      4.65% # attempts to use FU when none available (Count)
system.cpu.statFuBusy::SimdReduceAdd                0      0.00%      4.65% # attempts to use FU when none available (Count)
system.cpu.statFuBusy::SimdReduceAlu                0      0.00%      4.65% # attempts to use FU when none available (Count)
system.cpu.statFuBusy::SimdReduceCmp                0      0.00%      4.65% # attempts to use FU when none available (Count)
system.cpu.statFuBusy::SimdFloatReduceAdd            0      0.00%      4.65% # attempts to use FU when none available (Count)
system.cpu.statFuBusy::SimdFloatReduceCmp            0      0.00%      4.65% # attempts to use FU when none available (Count)
system.cpu.statFuBusy::SimdAes                      0      0.00%      4.65% # attempts to use FU when none available (Count)
system.cpu.statFuBusy::SimdAesMix                   0      0.00%      4.65% # attempts to use FU when none available (Count)
system.cpu.statFuBusy::SimdSha1Hash                 0      0.00%      4.65% # attempts to use FU when none available (Count)
system.cpu.statFuBusy::SimdSha1Hash2                0      0.00%      4.65% # attempts to use FU when none available (Count)
system.cpu.statFuBusy::SimdSha256Hash               0      0.00%      4.65% # attempts to use FU when none available (Count)
system.cpu.statFuBusy::SimdSha256Hash2              0      0.00%      4.65% # attempts to use FU when none available (Count)
system.cpu.statFuBusy::SimdShaSigma2                0      0.00%      4.65% # attempts to use FU when none available (Count)
system.cpu.statFuBusy::SimdShaSigma3                0      0.00%      4.65% # attempts to use FU when none available (Count)
system.cpu.statFuBusy::SimdPredAlu                  0      0.00%      4.65% # attempts to use FU when none available (Count)
system.cpu.statFuBusy::MemRead                    776      0.67%      5.32% # attempts to use FU when none available (Count)
system.cpu.statFuBusy::MemWrite                   841      0.72%      6.04% # attempts to use FU when none available (Count)
system.cpu.statFuBusy::FloatMemRead                29      0.02%      6.06% # attempts to use FU when none available (Count)
system.cpu.statFuBusy::FloatMemWrite           109487     93.94%    100.00% # attempts to use FU when none available (Count)
system.cpu.statFuBusy::IprAccess                    0      0.00%    100.00% # attempts to use FU when none available (Count)
system.cpu.statFuBusy::InstPrefetch                 0      0.00%    100.00% # attempts to use FU when none available (Count)
system.cpu.statIssuedInstType_0::No_OpClass         2051      0.01%      0.01% # Number of instructions issued per FU type, per thread (Count)
system.cpu.statIssuedInstType_0::IntAlu       9364241     43.79%     43.80% # Number of instructions issued per FU type, per thread (Count)
system.cpu.statIssuedInstType_0::IntMult          102      0.00%     43.80% # Number of instructions issued per FU type, per thread (Count)
system.cpu.statIssuedInstType_0::IntDiv          1933      0.01%     43.81% # Number of instructions issued per FU type, per thread (Count)
system.cpu.statIssuedInstType_0::FloatAdd          113      0.00%     43.81% # Number of instructions issued per FU type, per thread (Count)
system.cpu.statIssuedInstType_0::FloatCmp            0      0.00%     43.81% # Number of instructions issued per FU type, per thread (Count)
system.cpu.statIssuedInstType_0::FloatCvt          112      0.00%     43.81% # Number of instructions issued per FU type, per thread (Count)
system.cpu.statIssuedInstType_0::FloatMult            0      0.00%     43.81% # Number of instructions issued per FU type, per thread (Count)
system.cpu.statIssuedInstType_0::FloatMultAcc            0      0.00%     43.81% # Number of instructions issued per FU type, per thread (Count)
system.cpu.statIssuedInstType_0::FloatDiv            0      0.00%     43.81% # Number of instructions issued per FU type, per thread (Count)
system.cpu.statIssuedInstType_0::FloatMisc            0      0.00%     43.81% # Number of instructions issued per FU type, per thread (Count)
system.cpu.statIssuedInstType_0::FloatSqrt            0      0.00%     43.81% # Number of instructions issued per FU type, per thread (Count)
system.cpu.statIssuedInstType_0::SimdAdd           16      0.00%     43.81% # Number of instructions issued per FU type, per thread (Count)
system.cpu.statIssuedInstType_0::SimdAddAcc            0      0.00%     43.81% # Number of instructions issued per FU type, per thread (Count)
system.cpu.statIssuedInstType_0::SimdAlu          151      0.00%     43.81% # Number of instructions issued per FU type, per thread (Count)
system.cpu.statIssuedInstType_0::SimdCmp            0      0.00%     43.81% # Number of instructions issued per FU type, per thread (Count)
system.cpu.statIssuedInstType_0::SimdCvt          239      0.00%     43.81% # Number of instructions issued per FU type, per thread (Count)
system.cpu.statIssuedInstType_0::SimdMisc          425      0.00%     43.81% # Number of instructions issued per FU type, per thread (Count)
system.cpu.statIssuedInstType_0::SimdMult            0      0.00%     43.81% # Number of instructions issued per FU type, per thread (Count)
system.cpu.statIssuedInstType_0::SimdMultAcc            0      0.00%     43.81% # Number of instructions issued per FU type, per thread (Count)
system.cpu.statIssuedInstType_0::SimdShift           45      0.00%     43.81% # Number of instructions issued per FU type, per thread (Count)
system.cpu.statIssuedInstType_0::SimdShiftAcc            0      0.00%     43.81% # Number of instructions issued per FU type, per thread (Count)
system.cpu.statIssuedInstType_0::SimdDiv            0      0.00%     43.81% # Number of instructions issued per FU type, per thread (Count)
system.cpu.statIssuedInstType_0::SimdSqrt            0      0.00%     43.81% # Number of instructions issued per FU type, per thread (Count)
system.cpu.statIssuedInstType_0::SimdFloatAdd            0      0.00%     43.81% # Number of instructions issued per FU type, per thread (Count)
system.cpu.statIssuedInstType_0::SimdFloatAlu            0      0.00%     43.81% # Number of instructions issued per FU type, per thread (Count)
system.cpu.statIssuedInstType_0::SimdFloatCmp            0      0.00%     43.81% # Number of instructions issued per FU type, per thread (Count)
system.cpu.statIssuedInstType_0::SimdFloatCvt            0      0.00%     43.81% # Number of instructions issued per FU type, per thread (Count)
system.cpu.statIssuedInstType_0::SimdFloatDiv            0      0.00%     43.81% # Number of instructions issued per FU type, per thread (Count)
system.cpu.statIssuedInstType_0::SimdFloatMisc            0      0.00%     43.81% # Number of instructions issued per FU type, per thread (Count)
system.cpu.statIssuedInstType_0::SimdFloatMult            0      0.00%     43.81% # Number of instructions issued per FU type, per thread (Count)
system.cpu.statIssuedInstType_0::SimdFloatMultAcc            0      0.00%     43.81% # Number of instructions issued per FU type, per thread (Count)
system.cpu.statIssuedInstType_0::SimdFloatSqrt            0      0.00%     43.81% # Number of instructions issued per FU type, per thread (Count)
system.cpu.statIssuedInstType_0::SimdReduceAdd            0      0.00%     43.81% # Number of instructions issued per FU type, per thread (Count)
system.cpu.statIssuedInstType_0::SimdReduceAlu            0      0.00%     43.81% # Number of instructions issued per FU type, per thread (Count)
system.cpu.statIssuedInstType_0::SimdReduceCmp            0      0.00%     43.81% # Number of instructions issued per FU type, per thread (Count)
system.cpu.statIssuedInstType_0::SimdFloatReduceAdd            0      0.00%     43.81% # Number of instructions issued per FU type, per thread (Count)
system.cpu.statIssuedInstType_0::SimdFloatReduceCmp            0      0.00%     43.81% # Number of instructions issued per FU type, per thread (Count)
system.cpu.statIssuedInstType_0::SimdAes            0      0.00%     43.81% # Number of instructions issued per FU type, per thread (Count)
system.cpu.statIssuedInstType_0::SimdAesMix            0      0.00%     43.81% # Number of instructions issued per FU type, per thread (Count)
system.cpu.statIssuedInstType_0::SimdSha1Hash            0      0.00%     43.81% # Number of instructions issued per FU type, per thread (Count)
system.cpu.statIssuedInstType_0::SimdSha1Hash2            0      0.00%     43.81% # Number of instructions issued per FU type, per thread (Count)
system.cpu.statIssuedInstType_0::SimdSha256Hash            0      0.00%     43.81% # Number of instructions issued per FU type, per thread (Count)
system.cpu.statIssuedInstType_0::SimdSha256Hash2            0      0.00%     43.81% # Number of instructions issued per FU type, per thread (Count)
system.cpu.statIssuedInstType_0::SimdShaSigma2            0      0.00%     43.81% # Number of instructions issued per FU type, per thread (Count)
system.cpu.statIssuedInstType_0::SimdShaSigma3            0      0.00%     43.81% # Number of instructions issued per FU type, per thread (Count)
system.cpu.statIssuedInstType_0::SimdPredAlu            0      0.00%     43.81% # Number of instructions issued per FU type, per thread (Count)
system.cpu.statIssuedInstType_0::MemRead        80479      0.38%     44.19% # Number of instructions issued per FU type, per thread (Count)
system.cpu.statIssuedInstType_0::MemWrite        25843      0.12%     44.31% # Number of instructions issued per FU type, per thread (Count)
system.cpu.statIssuedInstType_0::FloatMemRead          435      0.00%     44.31% # Number of instructions issued per FU type, per thread (Count)
system.cpu.statIssuedInstType_0::FloatMemWrite     11908081     55.69%    100.00% # Number of instructions issued per FU type, per thread (Count)
system.cpu.statIssuedInstType_0::IprAccess            0      0.00%    100.00% # Number of instructions issued per FU type, per thread (Count)
system.cpu.statIssuedInstType_0::InstPrefetch            0      0.00%    100.00% # Number of instructions issued per FU type, per thread (Count)
system.cpu.statIssuedInstType_0::total       21384266                       # Number of instructions issued per FU type, per thread (Count)
system.cpu.issueRate                         0.112365                       # Inst issue rate ((Count/Cycle))
system.cpu.fuBusy                              116553                       # FU busy when requested (Count)
system.cpu.fuBusyRate                        0.005450                       # FU busy rate (busy events/executed inst) ((Count/Count))
system.cpu.intInstQueueReads                209189645                       # Number of integer instruction queue reads (Count)
system.cpu.intInstQueueWrites                10366668                       # Number of integer instruction queue writes (Count)
system.cpu.intInstQueueWakeupAccesses         9450978                       # Number of integer instruction queue wakeup accesses (Count)
system.cpu.fpInstQueueReads                  23929014                       # Number of floating instruction queue reads (Count)
system.cpu.fpInstQueueWrites                 12610951                       # Number of floating instruction queue writes (Count)
system.cpu.fpInstQueueWakeupAccesses         11252980                       # Number of floating instruction queue wakeup accesses (Count)
system.cpu.vecInstQueueReads                        0                       # Number of vector instruction queue reads (Count)
system.cpu.vecInstQueueWrites                       0                       # Number of vector instruction queue writes (Count)
system.cpu.vecInstQueueWakeupAccesses               0                       # Number of vector instruction queue wakeup accesses (Count)
system.cpu.intAluAccesses                     9479514                       # Number of integer alu accesses (Count)
system.cpu.fpAluAccesses                     12019254                       # Number of floating point alu accesses (Count)
system.cpu.vecAluAccesses                           0                       # Number of vector alu accesses (Count)
system.cpu.numInsts                          21372141                       # Number of executed instructions (Count)
system.cpu.numLoadInsts                         78424                       # Number of load instructions executed (Count)
system.cpu.numSquashedInsts                     12124                       # Number of squashed instructions skipped in execute (Count)
system.cpu.numSwp                                   0                       # Number of swp insts executed (Count)
system.cpu.numNop                                   0                       # Number of nop insts executed (Count)
system.cpu.numRefs                           12011625                       # Number of memory reference insts executed (Count)
system.cpu.numBranches                        1544378                       # Number of branches executed (Count)
system.cpu.numStoreInsts                     11933201                       # Number of stores executed (Count)
system.cpu.numRate                           0.112302                       # Inst execution rate ((Count/Cycle))
system.cpu.timesIdled                             884                       # Number of times that the entire CPU went into an idle state and unscheduled itself (Count)
system.cpu.idleCycles                           77423                       # Total number of cycles that the CPU has spent unscheduled due to idling (Cycle)
system.cpu.committedInsts                    10000000                       # Number of Instructions Simulated (Count)
system.cpu.committedOps                      19972351                       # Number of Ops (including micro ops) Simulated (Count)
system.cpu.cpi                              19.030996                       # CPI: Cycles Per Instruction ((Cycle/Count))
system.cpu.totalCpi                         19.030996                       # CPI: Total CPI of All Threads ((Cycle/Count))
system.cpu.ipc                               0.052546                       # IPC: Instructions Per Cycle ((Count/Cycle))
system.cpu.totalIpc                          0.052546                       # IPC: Total IPC of All Threads ((Count/Cycle))
system.cpu.intRegfileReads                   21546815                       # Number of integer regfile reads (Count)
system.cpu.intRegfileWrites                   6352580                       # Number of integer regfile writes (Count)
system.cpu.fpRegfileReads                    11910618                       # Number of floating regfile reads (Count)
system.cpu.fpRegfileWrites                       1294                       # Number of floating regfile writes (Count)
system.cpu.ccRegfileReads                     7731819                       # number of cc regfile reads (Count)
system.cpu.ccRegfileWrites                    6145806                       # number of cc regfile writes (Count)
system.cpu.miscRegfileReads                  15114390                       # number of misc regfile reads (Count)
system.cpu.miscRegfileWrites                       63                       # number of misc regfile writes (Count)
system.cpu.MemDepUnit__0.insertedLoads          89973                       # Number of loads inserted to the mem dependence unit. (Count)
system.cpu.MemDepUnit__0.insertedStores      11936834                       # Number of stores inserted to the mem dependence unit. (Count)
system.cpu.MemDepUnit__0.conflictingLoads         1803                       # Number of conflicting loads. (Count)
system.cpu.MemDepUnit__0.conflictingStores         1118                       # Number of conflicting stores. (Count)
system.cpu.MemDepUnit__1.insertedLoads              0                       # Number of loads inserted to the mem dependence unit. (Count)
system.cpu.MemDepUnit__1.insertedStores             0                       # Number of stores inserted to the mem dependence unit. (Count)
system.cpu.MemDepUnit__1.conflictingLoads            0                       # Number of conflicting loads. (Count)
system.cpu.MemDepUnit__1.conflictingStores            0                       # Number of conflicting stores. (Count)
system.cpu.MemDepUnit__2.insertedLoads              0                       # Number of loads inserted to the mem dependence unit. (Count)
system.cpu.MemDepUnit__2.insertedStores             0                       # Number of stores inserted to the mem dependence unit. (Count)
system.cpu.MemDepUnit__2.conflictingLoads            0                       # Number of conflicting loads. (Count)
system.cpu.MemDepUnit__2.conflictingStores            0                       # Number of conflicting stores. (Count)
system.cpu.MemDepUnit__3.insertedLoads              0                       # Number of loads inserted to the mem dependence unit. (Count)
system.cpu.MemDepUnit__3.insertedStores             0                       # Number of stores inserted to the mem dependence unit. (Count)
system.cpu.MemDepUnit__3.conflictingLoads            0                       # Number of conflicting loads. (Count)
system.cpu.MemDepUnit__3.conflictingStores            0                       # Number of conflicting stores. (Count)
system.cpu.branchPred.lookups                 1648395                       # Number of BP lookups (Count)
system.cpu.branchPred.condPredicted           1635937                       # Number of conditional branches predicted (Count)
system.cpu.branchPred.condIncorrect              6159                       # Number of conditional branches incorrect (Count)
system.cpu.branchPred.BTBLookups              1604031                       # Number of BTB lookups (Count)
system.cpu.branchPred.BTBHits                 1601613                       # Number of BTB hits (Count)
system.cpu.branchPred.BTBHitRatio            0.998493                       # BTB Hit Ratio (Ratio)
system.cpu.branchPred.RASUsed                    2975                       # Number of times the RAS was used to get a target. (Count)
system.cpu.branchPred.RASIncorrect                  5                       # Number of incorrect RAS predictions. (Count)
system.cpu.branchPred.indirectLookups            1232                       # Number of indirect predictor lookups. (Count)
system.cpu.branchPred.indirectHits                286                       # Number of indirect target hits. (Count)
system.cpu.branchPred.indirectMisses              946                       # Number of indirect misses. (Count)
system.cpu.branchPred.indirectMispredicted          261                       # Number of mispredicted indirect branches. (Count)
system.cpu.commit.commitSquashedInsts         1346771                       # The number of squashed insts skipped by commit (Count)
system.cpu.commit.commitNonSpecStalls              63                       # The number of times commit has been forced to stall to communicate backwards (Count)
system.cpu.commit.branchMispredicts              6441                       # The number of times a branch was mispredicted (Count)
system.cpu.commit.numCommittedDist::samples    190038924                       # Number of insts commited each cycle (Count)
system.cpu.commit.numCommittedDist::mean     0.105096                       # Number of insts commited each cycle (Count)
system.cpu.commit.numCommittedDist::stdev     0.433497                       # Number of insts commited each cycle (Count)
system.cpu.commit.numCommittedDist::underflows            0      0.00%      0.00% # Number of insts commited each cycle (Count)
system.cpu.commit.numCommittedDist::0       175005992     92.09%     92.09% # Number of insts commited each cycle (Count)
system.cpu.commit.numCommittedDist::1        12333770      6.49%     98.58% # Number of insts commited each cycle (Count)
system.cpu.commit.numCommittedDist::2         1107106      0.58%     99.16% # Number of insts commited each cycle (Count)
system.cpu.commit.numCommittedDist::3         1402436      0.74%     99.90% # Number of insts commited each cycle (Count)
system.cpu.commit.numCommittedDist::4           50356      0.03%     99.93% # Number of insts commited each cycle (Count)
system.cpu.commit.numCommittedDist::5           29573      0.02%     99.94% # Number of insts commited each cycle (Count)
system.cpu.commit.numCommittedDist::6            3989      0.00%     99.94% # Number of insts commited each cycle (Count)
system.cpu.commit.numCommittedDist::7            1778      0.00%     99.95% # Number of insts commited each cycle (Count)
system.cpu.commit.numCommittedDist::8          103924      0.05%    100.00% # Number of insts commited each cycle (Count)
system.cpu.commit.numCommittedDist::overflows            0      0.00%    100.00% # Number of insts commited each cycle (Count)
system.cpu.commit.numCommittedDist::min_value            0                       # Number of insts commited each cycle (Count)
system.cpu.commit.numCommittedDist::max_value            8                       # Number of insts commited each cycle (Count)
system.cpu.commit.numCommittedDist::total    190038924                       # Number of insts commited each cycle (Count)
system.cpu.commit.instsCommitted             10000000                       # Number of instructions committed (Count)
system.cpu.commit.opsCommitted               19972351                       # Number of ops (including micro ops) committed (Count)
system.cpu.commit.memRefs                    11278664                       # Number of memory references committed (Count)
system.cpu.commit.loads                         51398                       # Number of loads committed (Count)
system.cpu.commit.amos                              0                       # Number of atomic instructions committed (Count)
system.cpu.commit.membars                           0                       # Number of memory barriers committed (Count)
system.cpu.commit.branches                    1444581                       # Number of branches committed (Count)
system.cpu.commit.vectorInstructions                0                       # Number of committed Vector instructions. (Count)
system.cpu.commit.floating                   11208860                       # Number of committed floating point instructions. (Count)
system.cpu.commit.integer                    19967938                       # Number of committed integer instructions. (Count)
system.cpu.commit.functionCalls                  1457                       # Number of function calls committed. (Count)
system.cpu.commit.committedInstType_0::No_OpClass          776      0.00%      0.00% # Class of committed instruction (Count)
system.cpu.commit.committedInstType_0::IntAlu      8690175     43.51%     43.51% # Class of committed instruction (Count)
system.cpu.commit.committedInstType_0::IntMult           67      0.00%     43.52% # Class of committed instruction (Count)
system.cpu.commit.committedInstType_0::IntDiv         1740      0.01%     43.52% # Class of committed instruction (Count)
system.cpu.commit.committedInstType_0::FloatAdd           89      0.00%     43.52% # Class of committed instruction (Count)
system.cpu.commit.committedInstType_0::FloatCmp            0      0.00%     43.52% # Class of committed instruction (Count)
system.cpu.commit.committedInstType_0::FloatCvt          112      0.00%     43.52% # Class of committed instruction (Count)
system.cpu.commit.committedInstType_0::FloatMult            0      0.00%     43.52% # Class of committed instruction (Count)
system.cpu.commit.committedInstType_0::FloatMultAcc            0      0.00%     43.52% # Class of committed instruction (Count)
system.cpu.commit.committedInstType_0::FloatDiv            0      0.00%     43.52% # Class of committed instruction (Count)
system.cpu.commit.committedInstType_0::FloatMisc            0      0.00%     43.52% # Class of committed instruction (Count)
system.cpu.commit.committedInstType_0::FloatSqrt            0      0.00%     43.52% # Class of committed instruction (Count)
system.cpu.commit.committedInstType_0::SimdAdd           12      0.00%     43.53% # Class of committed instruction (Count)
system.cpu.commit.committedInstType_0::SimdAddAcc            0      0.00%     43.53% # Class of committed instruction (Count)
system.cpu.commit.committedInstType_0::SimdAlu          109      0.00%     43.53% # Class of committed instruction (Count)
system.cpu.commit.committedInstType_0::SimdCmp            0      0.00%     43.53% # Class of committed instruction (Count)
system.cpu.commit.committedInstType_0::SimdCvt          196      0.00%     43.53% # Class of committed instruction (Count)
system.cpu.commit.committedInstType_0::SimdMisc          401      0.00%     43.53% # Class of committed instruction (Count)
system.cpu.commit.committedInstType_0::SimdMult            0      0.00%     43.53% # Class of committed instruction (Count)
system.cpu.commit.committedInstType_0::SimdMultAcc            0      0.00%     43.53% # Class of committed instruction (Count)
system.cpu.commit.committedInstType_0::SimdShift           10      0.00%     43.53% # Class of committed instruction (Count)
system.cpu.commit.committedInstType_0::SimdShiftAcc            0      0.00%     43.53% # Class of committed instruction (Count)
system.cpu.commit.committedInstType_0::SimdDiv            0      0.00%     43.53% # Class of committed instruction (Count)
system.cpu.commit.committedInstType_0::SimdSqrt            0      0.00%     43.53% # Class of committed instruction (Count)
system.cpu.commit.committedInstType_0::SimdFloatAdd            0      0.00%     43.53% # Class of committed instruction (Count)
system.cpu.commit.committedInstType_0::SimdFloatAlu            0      0.00%     43.53% # Class of committed instruction (Count)
system.cpu.commit.committedInstType_0::SimdFloatCmp            0      0.00%     43.53% # Class of committed instruction (Count)
system.cpu.commit.committedInstType_0::SimdFloatCvt            0      0.00%     43.53% # Class of committed instruction (Count)
system.cpu.commit.committedInstType_0::SimdFloatDiv            0      0.00%     43.53% # Class of committed instruction (Count)
system.cpu.commit.committedInstType_0::SimdFloatMisc            0      0.00%     43.53% # Class of committed instruction (Count)
system.cpu.commit.committedInstType_0::SimdFloatMult            0      0.00%     43.53% # Class of committed instruction (Count)
system.cpu.commit.committedInstType_0::SimdFloatMultAcc            0      0.00%     43.53% # Class of committed instruction (Count)
system.cpu.commit.committedInstType_0::SimdFloatSqrt            0      0.00%     43.53% # Class of committed instruction (Count)
system.cpu.commit.committedInstType_0::SimdReduceAdd            0      0.00%     43.53% # Class of committed instruction (Count)
system.cpu.commit.committedInstType_0::SimdReduceAlu            0      0.00%     43.53% # Class of committed instruction (Count)
system.cpu.commit.committedInstType_0::SimdReduceCmp            0      0.00%     43.53% # Class of committed instruction (Count)
system.cpu.commit.committedInstType_0::SimdFloatReduceAdd            0      0.00%     43.53% # Class of committed instruction (Count)
system.cpu.commit.committedInstType_0::SimdFloatReduceCmp            0      0.00%     43.53% # Class of committed instruction (Count)
system.cpu.commit.committedInstType_0::SimdAes            0      0.00%     43.53% # Class of committed instruction (Count)
system.cpu.commit.committedInstType_0::SimdAesMix            0      0.00%     43.53% # Class of committed instruction (Count)
system.cpu.commit.committedInstType_0::SimdSha1Hash            0      0.00%     43.53% # Class of committed instruction (Count)
system.cpu.commit.committedInstType_0::SimdSha1Hash2            0      0.00%     43.53% # Class of committed instruction (Count)
system.cpu.commit.committedInstType_0::SimdSha256Hash            0      0.00%     43.53% # Class of committed instruction (Count)
system.cpu.commit.committedInstType_0::SimdSha256Hash2            0      0.00%     43.53% # Class of committed instruction (Count)
system.cpu.commit.committedInstType_0::SimdShaSigma2            0      0.00%     43.53% # Class of committed instruction (Count)
system.cpu.commit.committedInstType_0::SimdShaSigma3            0      0.00%     43.53% # Class of committed instruction (Count)
system.cpu.commit.committedInstType_0::SimdPredAlu            0      0.00%     43.53% # Class of committed instruction (Count)
system.cpu.commit.committedInstType_0::MemRead        51053      0.26%     43.78% # Class of committed instruction (Count)
system.cpu.commit.committedInstType_0::MemWrite        19787      0.10%     43.88% # Class of committed instruction (Count)
system.cpu.commit.committedInstType_0::FloatMemRead          345      0.00%     43.89% # Class of committed instruction (Count)
system.cpu.commit.committedInstType_0::FloatMemWrite     11207479     56.11%    100.00% # Class of committed instruction (Count)
system.cpu.commit.committedInstType_0::IprAccess            0      0.00%    100.00% # Class of committed instruction (Count)
system.cpu.commit.committedInstType_0::InstPrefetch            0      0.00%    100.00% # Class of committed instruction (Count)
system.cpu.commit.committedInstType_0::total     19972351                       # Class of committed instruction (Count)
system.cpu.commit.commitEligibleSamples        103924                       # number cycles where commit BW limit reached (Cycle)
system.cpu.dcache.demandHits::cpu.data        9884960                       # number of demand (read+write) hits (Count)
system.cpu.dcache.demandHits::total           9884960                       # number of demand (read+write) hits (Count)
system.cpu.dcache.overallHits::cpu.data       9884960                       # number of overall hits (Count)
system.cpu.dcache.overallHits::total          9884960                       # number of overall hits (Count)
system.cpu.dcache.demandMisses::cpu.data      1413254                       # number of demand (read+write) misses (Count)
system.cpu.dcache.demandMisses::total         1413254                       # number of demand (read+write) misses (Count)
system.cpu.dcache.overallMisses::cpu.data      1413254                       # number of overall misses (Count)
system.cpu.dcache.overallMisses::total        1413254                       # number of overall misses (Count)
system.cpu.dcache.demandMissLatency::cpu.data  85408071988                       # number of demand (read+write) miss ticks (Tick)
system.cpu.dcache.demandMissLatency::total  85408071988                       # number of demand (read+write) miss ticks (Tick)
system.cpu.dcache.overallMissLatency::cpu.data  85408071988                       # number of overall miss ticks (Tick)
system.cpu.dcache.overallMissLatency::total  85408071988                       # number of overall miss ticks (Tick)
system.cpu.dcache.demandAccesses::cpu.data     11298214                       # number of demand (read+write) accesses (Count)
system.cpu.dcache.demandAccesses::total      11298214                       # number of demand (read+write) accesses (Count)
system.cpu.dcache.overallAccesses::cpu.data     11298214                       # number of overall (read+write) accesses (Count)
system.cpu.dcache.overallAccesses::total     11298214                       # number of overall (read+write) accesses (Count)
system.cpu.dcache.demandMissRate::cpu.data     0.125086                       # miss rate for demand accesses (Ratio)
system.cpu.dcache.demandMissRate::total      0.125086                       # miss rate for demand accesses (Ratio)
system.cpu.dcache.overallMissRate::cpu.data     0.125086                       # miss rate for overall accesses (Ratio)
system.cpu.dcache.overallMissRate::total     0.125086                       # miss rate for overall accesses (Ratio)
system.cpu.dcache.demandAvgMissLatency::cpu.data 60433.631879                       # average overall miss latency in ticks ((Tick/Count))
system.cpu.dcache.demandAvgMissLatency::total 60433.631879                       # average overall miss latency in ticks ((Tick/Count))
system.cpu.dcache.overallAvgMissLatency::cpu.data 60433.631879                       # average overall miss latency ((Tick/Count))
system.cpu.dcache.overallAvgMissLatency::total 60433.631879                       # average overall miss latency ((Tick/Count))
system.cpu.dcache.blockedCycles::no_mshrs        12859                       # number of cycles access was blocked (Cycle)
system.cpu.dcache.blockedCycles::no_targets            8                       # number of cycles access was blocked (Cycle)
system.cpu.dcache.blockedCauses::no_mshrs          289                       # number of times access was blocked (Count)
system.cpu.dcache.blockedCauses::no_targets            1                       # number of times access was blocked (Count)
system.cpu.dcache.avgBlocked::no_mshrs      44.494810                       # average number of cycles each access was blocked ((Cycle/Count))
system.cpu.dcache.avgBlocked::no_targets            8                       # average number of cycles each access was blocked ((Cycle/Count))
system.cpu.dcache.writebacks::writebacks      1400519                       # number of writebacks (Count)
system.cpu.dcache.writebacks::total           1400519                       # number of writebacks (Count)
system.cpu.dcache.demandMshrHits::cpu.data         9360                       # number of demand (read+write) MSHR hits (Count)
system.cpu.dcache.demandMshrHits::total          9360                       # number of demand (read+write) MSHR hits (Count)
system.cpu.dcache.overallMshrHits::cpu.data         9360                       # number of overall MSHR hits (Count)
system.cpu.dcache.overallMshrHits::total         9360                       # number of overall MSHR hits (Count)
system.cpu.dcache.demandMshrMisses::cpu.data      1403894                       # number of demand (read+write) MSHR misses (Count)
system.cpu.dcache.demandMshrMisses::total      1403894                       # number of demand (read+write) MSHR misses (Count)
system.cpu.dcache.overallMshrMisses::cpu.data      1403894                       # number of overall MSHR misses (Count)
system.cpu.dcache.overallMshrMisses::total      1403894                       # number of overall MSHR misses (Count)
system.cpu.dcache.demandMshrMissLatency::cpu.data  83570347489                       # number of demand (read+write) MSHR miss ticks (Tick)
system.cpu.dcache.demandMshrMissLatency::total  83570347489                       # number of demand (read+write) MSHR miss ticks (Tick)
system.cpu.dcache.overallMshrMissLatency::cpu.data  83570347489                       # number of overall MSHR miss ticks (Tick)
system.cpu.dcache.overallMshrMissLatency::total  83570347489                       # number of overall MSHR miss ticks (Tick)
system.cpu.dcache.demandMshrMissRate::cpu.data     0.124258                       # mshr miss ratio for demand accesses (Ratio)
system.cpu.dcache.demandMshrMissRate::total     0.124258                       # mshr miss ratio for demand accesses (Ratio)
system.cpu.dcache.overallMshrMissRate::cpu.data     0.124258                       # mshr miss ratio for overall accesses (Ratio)
system.cpu.dcache.overallMshrMissRate::total     0.124258                       # mshr miss ratio for overall accesses (Ratio)
system.cpu.dcache.demandAvgMshrMissLatency::cpu.data 59527.533766                       # average overall mshr miss latency ((Tick/Count))
system.cpu.dcache.demandAvgMshrMissLatency::total 59527.533766                       # average overall mshr miss latency ((Tick/Count))
system.cpu.dcache.overallAvgMshrMissLatency::cpu.data 59527.533766                       # average overall mshr miss latency ((Tick/Count))
system.cpu.dcache.overallAvgMshrMissLatency::total 59527.533766                       # average overall mshr miss latency ((Tick/Count))
system.cpu.dcache.replacements                1402869                       # number of replacements (Count)
system.cpu.dcache.ReadReq.hits::cpu.data        59158                       # number of ReadReq hits (Count)
system.cpu.dcache.ReadReq.hits::total           59158                       # number of ReadReq hits (Count)
system.cpu.dcache.ReadReq.misses::cpu.data        11811                       # number of ReadReq misses (Count)
system.cpu.dcache.ReadReq.misses::total         11811                       # number of ReadReq misses (Count)
system.cpu.dcache.ReadReq.missLatency::cpu.data    585623500                       # number of ReadReq miss ticks (Tick)
system.cpu.dcache.ReadReq.missLatency::total    585623500                       # number of ReadReq miss ticks (Tick)
system.cpu.dcache.ReadReq.accesses::cpu.data        70969                       # number of ReadReq accesses(hits+misses) (Count)
system.cpu.dcache.ReadReq.accesses::total        70969                       # number of ReadReq accesses(hits+misses) (Count)
system.cpu.dcache.ReadReq.missRate::cpu.data     0.166425                       # miss rate for ReadReq accesses (Ratio)
system.cpu.dcache.ReadReq.missRate::total     0.166425                       # miss rate for ReadReq accesses (Ratio)
system.cpu.dcache.ReadReq.avgMissLatency::cpu.data 49582.888832                       # average ReadReq miss latency ((Tick/Count))
system.cpu.dcache.ReadReq.avgMissLatency::total 49582.888832                       # average ReadReq miss latency ((Tick/Count))
system.cpu.dcache.ReadReq.mshrHits::cpu.data         9353                       # number of ReadReq MSHR hits (Count)
system.cpu.dcache.ReadReq.mshrHits::total         9353                       # number of ReadReq MSHR hits (Count)
system.cpu.dcache.ReadReq.mshrMisses::cpu.data         2458                       # number of ReadReq MSHR misses (Count)
system.cpu.dcache.ReadReq.mshrMisses::total         2458                       # number of ReadReq MSHR misses (Count)
system.cpu.dcache.ReadReq.mshrMissLatency::cpu.data    149543000                       # number of ReadReq MSHR miss ticks (Tick)
system.cpu.dcache.ReadReq.mshrMissLatency::total    149543000                       # number of ReadReq MSHR miss ticks (Tick)
system.cpu.dcache.ReadReq.mshrMissRate::cpu.data     0.034635                       # mshr miss rate for ReadReq accesses (Ratio)
system.cpu.dcache.ReadReq.mshrMissRate::total     0.034635                       # mshr miss rate for ReadReq accesses (Ratio)
system.cpu.dcache.ReadReq.avgMshrMissLatency::cpu.data 60839.300244                       # average ReadReq mshr miss latency ((Tick/Count))
system.cpu.dcache.ReadReq.avgMshrMissLatency::total 60839.300244                       # average ReadReq mshr miss latency ((Tick/Count))
system.cpu.dcache.WriteReq.hits::cpu.data      9825802                       # number of WriteReq hits (Count)
system.cpu.dcache.WriteReq.hits::total        9825802                       # number of WriteReq hits (Count)
system.cpu.dcache.WriteReq.misses::cpu.data      1401443                       # number of WriteReq misses (Count)
system.cpu.dcache.WriteReq.misses::total      1401443                       # number of WriteReq misses (Count)
system.cpu.dcache.WriteReq.missLatency::cpu.data  84822448488                       # number of WriteReq miss ticks (Tick)
system.cpu.dcache.WriteReq.missLatency::total  84822448488                       # number of WriteReq miss ticks (Tick)
system.cpu.dcache.WriteReq.accesses::cpu.data     11227245                       # number of WriteReq accesses(hits+misses) (Count)
system.cpu.dcache.WriteReq.accesses::total     11227245                       # number of WriteReq accesses(hits+misses) (Count)
system.cpu.dcache.WriteReq.missRate::cpu.data     0.124825                       # miss rate for WriteReq accesses (Ratio)
system.cpu.dcache.WriteReq.missRate::total     0.124825                       # miss rate for WriteReq accesses (Ratio)
system.cpu.dcache.WriteReq.avgMissLatency::cpu.data 60525.079142                       # average WriteReq miss latency ((Tick/Count))
system.cpu.dcache.WriteReq.avgMissLatency::total 60525.079142                       # average WriteReq miss latency ((Tick/Count))
system.cpu.dcache.WriteReq.mshrHits::cpu.data            7                       # number of WriteReq MSHR hits (Count)
system.cpu.dcache.WriteReq.mshrHits::total            7                       # number of WriteReq MSHR hits (Count)
system.cpu.dcache.WriteReq.mshrMisses::cpu.data      1401436                       # number of WriteReq MSHR misses (Count)
system.cpu.dcache.WriteReq.mshrMisses::total      1401436                       # number of WriteReq MSHR misses (Count)
system.cpu.dcache.WriteReq.mshrMissLatency::cpu.data  83420804489                       # number of WriteReq MSHR miss ticks (Tick)
system.cpu.dcache.WriteReq.mshrMissLatency::total  83420804489                       # number of WriteReq MSHR miss ticks (Tick)
system.cpu.dcache.WriteReq.mshrMissRate::cpu.data     0.124825                       # mshr miss rate for WriteReq accesses (Ratio)
system.cpu.dcache.WriteReq.mshrMissRate::total     0.124825                       # mshr miss rate for WriteReq accesses (Ratio)
system.cpu.dcache.WriteReq.avgMshrMissLatency::cpu.data 59525.233039                       # average WriteReq mshr miss latency ((Tick/Count))
system.cpu.dcache.WriteReq.avgMshrMissLatency::total 59525.233039                       # average WriteReq mshr miss latency ((Tick/Count))
system.cpu.dcache.power_state.pwrStateResidencyTicks::UNDEFINED  95154978500                       # Cumulative time (in ticks) in various power states (Tick)
system.cpu.dcache.tags.tagsInUse          1023.441704                       # Average ticks per tags in use ((Tick/Count))
system.cpu.dcache.tags.totalRefs             11288853                       # Total number of references to valid blocks. (Count)
system.cpu.dcache.tags.sampledRefs            1403893                       # Sample count of references to valid blocks. (Count)
system.cpu.dcache.tags.avgRefs               8.041106                       # Average number of references to valid blocks. ((Count/Count))
system.cpu.dcache.tags.warmupTick              148000                       # The tick when the warmup percentage was hit. (Tick)
system.cpu.dcache.tags.occupancies::cpu.data  1023.441704                       # Average occupied blocks per tick, per requestor ((Count/Tick))
system.cpu.dcache.tags.avgOccs::cpu.data     0.999455                       # Average percentage of cache occupancy ((Ratio/Tick))
system.cpu.dcache.tags.avgOccs::total        0.999455                       # Average percentage of cache occupancy ((Ratio/Tick))
system.cpu.dcache.tags.occupanciesTaskId::1024         1024                       # Occupied blocks per task id (Count)
system.cpu.dcache.tags.ageTaskId_1024::0          148                       # Occupied blocks per task id, per block age (Count)
system.cpu.dcache.tags.ageTaskId_1024::1          876                       # Occupied blocks per task id, per block age (Count)
system.cpu.dcache.tags.ratioOccsTaskId::1024            1                       # Ratio of occupied blocks and all blocks, per task id (Ratio)
system.cpu.dcache.tags.tagAccesses           24000321                       # Number of tag accesses (Count)
system.cpu.dcache.tags.dataAccesses          24000321                       # Number of data accesses (Count)
system.cpu.dcache.tags.power_state.pwrStateResidencyTicks::UNDEFINED  95154978500                       # Cumulative time (in ticks) in various power states (Tick)
system.cpu.decode.idleCycles                   933995                       # Number of cycles decode is idle (Cycle)
system.cpu.decode.blockedCycles             186536217                       # Number of cycles decode is blocked (Cycle)
system.cpu.decode.runCycles                    245147                       # Number of cycles decode is running (Cycle)
system.cpu.decode.unblockCycles               2488575                       # Number of cycles decode is unblocking (Cycle)
system.cpu.decode.squashCycles                  28601                       # Number of cycles decode is squashing (Cycle)
system.cpu.decode.branchResolved              1532332                       # Number of times decode resolved a branch (Count)
system.cpu.decode.branchMispred                   646                       # Number of times decode detected a branch misprediction (Count)
system.cpu.decode.decodedInsts               21676308                       # Number of instructions handled by decode (Count)
system.cpu.decode.squashedInsts                  3097                       # Number of squashed instructions handled by decode (Count)
system.cpu.dtb_walker_cache.blockedCycles::no_mshrs            0                       # number of cycles access was blocked (Cycle)
system.cpu.dtb_walker_cache.blockedCycles::no_targets            0                       # number of cycles access was blocked (Cycle)
system.cpu.dtb_walker_cache.blockedCauses::no_mshrs            0                       # number of times access was blocked (Count)
system.cpu.dtb_walker_cache.blockedCauses::no_targets            0                       # number of times access was blocked (Count)
system.cpu.dtb_walker_cache.avgBlocked::no_mshrs          nan                       # average number of cycles each access was blocked ((Cycle/Count))
system.cpu.dtb_walker_cache.avgBlocked::no_targets          nan                       # average number of cycles each access was blocked ((Cycle/Count))
system.cpu.dtb_walker_cache.replacements            0                       # number of replacements (Count)
system.cpu.dtb_walker_cache.power_state.pwrStateResidencyTicks::UNDEFINED  95154978500                       # Cumulative time (in ticks) in various power states (Tick)
system.cpu.dtb_walker_cache.tags.tagsInUse            0                       # Average ticks per tags in use ((Tick/Count))
system.cpu.dtb_walker_cache.tags.totalRefs            0                       # Total number of references to valid blocks. (Count)
system.cpu.dtb_walker_cache.tags.sampledRefs            0                       # Sample count of references to valid blocks. (Count)
system.cpu.dtb_walker_cache.tags.avgRefs          nan                       # Average number of references to valid blocks. ((Count/Count))
system.cpu.dtb_walker_cache.tags.warmupTick            0                       # The tick when the warmup percentage was hit. (Tick)
system.cpu.dtb_walker_cache.tags.tagAccesses            0                       # Number of tag accesses (Count)
system.cpu.dtb_walker_cache.tags.dataAccesses            0                       # Number of data accesses (Count)
system.cpu.dtb_walker_cache.tags.power_state.pwrStateResidencyTicks::UNDEFINED  95154978500                       # Cumulative time (in ticks) in various power states (Tick)
system.cpu.fetch.icacheStallCycles              90151                       # Number of cycles fetch is stalled on an Icache miss (Cycle)
system.cpu.fetch.insts                       11453054                       # Number of instructions fetch has processed (Count)
system.cpu.fetch.branches                     1648395                       # Number of branches that fetch encountered (Count)
system.cpu.fetch.predictedBranches            1604874                       # Number of branches that fetch has predicted taken (Count)
system.cpu.fetch.cycles                     190110100                       # Number of cycles fetch has run and was not squashing or blocked (Cycle)
system.cpu.fetch.squashCycles                   58464                       # Number of cycles fetch has spent squashing (Cycle)
system.cpu.fetch.miscStallCycles                  383                       # Number of cycles fetch has spent waiting on interrupts, or bad addresses, or out of MSHRs (Cycle)
system.cpu.fetch.pendingTrapStallCycles          2654                       # Number of stall cycles due to pending traps (Cycle)
system.cpu.fetch.icacheWaitRetryStallCycles           15                       # Number of stall cycles due to full MSHR (Cycle)
system.cpu.fetch.cacheLines                     49337                       # Number of cache lines fetched (Count)
system.cpu.fetch.icacheSquashes                  2128                       # Number of outstanding Icache misses that were squashed (Count)
system.cpu.fetch.nisnDist::samples          190232535                       # Number of instructions fetched each cycle (Total) (Count)
system.cpu.fetch.nisnDist::mean              0.119814                       # Number of instructions fetched each cycle (Total) (Count)
system.cpu.fetch.nisnDist::stdev             0.883910                       # Number of instructions fetched each cycle (Total) (Count)
system.cpu.fetch.nisnDist::underflows               0      0.00%      0.00% # Number of instructions fetched each cycle (Total) (Count)
system.cpu.fetch.nisnDist::0                186248938     97.91%     97.91% # Number of instructions fetched each cycle (Total) (Count)
system.cpu.fetch.nisnDist::1                    11284      0.01%     97.91% # Number of instructions fetched each cycle (Total) (Count)
system.cpu.fetch.nisnDist::2                   710747      0.37%     98.29% # Number of instructions fetched each cycle (Total) (Count)
system.cpu.fetch.nisnDist::3                     8713      0.00%     98.29% # Number of instructions fetched each cycle (Total) (Count)
system.cpu.fetch.nisnDist::4                   733896      0.39%     98.68% # Number of instructions fetched each cycle (Total) (Count)
system.cpu.fetch.nisnDist::5                     8757      0.00%     98.68% # Number of instructions fetched each cycle (Total) (Count)
system.cpu.fetch.nisnDist::6                   861915      0.45%     99.13% # Number of instructions fetched each cycle (Total) (Count)
system.cpu.fetch.nisnDist::7                     3605      0.00%     99.14% # Number of instructions fetched each cycle (Total) (Count)
system.cpu.fetch.nisnDist::8                  1644680      0.86%    100.00% # Number of instructions fetched each cycle (Total) (Count)
system.cpu.fetch.nisnDist::overflows                0      0.00%    100.00% # Number of instructions fetched each cycle (Total) (Count)
system.cpu.fetch.nisnDist::min_value                0                       # Number of instructions fetched each cycle (Total) (Count)
system.cpu.fetch.nisnDist::max_value                8                       # Number of instructions fetched each cycle (Total) (Count)
system.cpu.fetch.nisnDist::total            190232535                       # Number of instructions fetched each cycle (Total) (Count)
system.cpu.fetch.branchRate                  0.008662                       # Number of branch fetches per cycle (Ratio)
system.cpu.fetch.rate                        0.060181                       # Number of inst fetches per cycle ((Count/Cycle))
system.cpu.icache.demandHits::cpu.inst          47521                       # number of demand (read+write) hits (Count)
system.cpu.icache.demandHits::total             47521                       # number of demand (read+write) hits (Count)
system.cpu.icache.overallHits::cpu.inst         47521                       # number of overall hits (Count)
system.cpu.icache.overallHits::total            47521                       # number of overall hits (Count)
system.cpu.icache.demandMisses::cpu.inst         1816                       # number of demand (read+write) misses (Count)
system.cpu.icache.demandMisses::total            1816                       # number of demand (read+write) misses (Count)
system.cpu.icache.overallMisses::cpu.inst         1816                       # number of overall misses (Count)
system.cpu.icache.overallMisses::total           1816                       # number of overall misses (Count)
system.cpu.icache.demandMissLatency::cpu.inst    104696500                       # number of demand (read+write) miss ticks (Tick)
system.cpu.icache.demandMissLatency::total    104696500                       # number of demand (read+write) miss ticks (Tick)
system.cpu.icache.overallMissLatency::cpu.inst    104696500                       # number of overall miss ticks (Tick)
system.cpu.icache.overallMissLatency::total    104696500                       # number of overall miss ticks (Tick)
system.cpu.icache.demandAccesses::cpu.inst        49337                       # number of demand (read+write) accesses (Count)
system.cpu.icache.demandAccesses::total         49337                       # number of demand (read+write) accesses (Count)
system.cpu.icache.overallAccesses::cpu.inst        49337                       # number of overall (read+write) accesses (Count)
system.cpu.icache.overallAccesses::total        49337                       # number of overall (read+write) accesses (Count)
system.cpu.icache.demandMissRate::cpu.inst     0.036808                       # miss rate for demand accesses (Ratio)
system.cpu.icache.demandMissRate::total      0.036808                       # miss rate for demand accesses (Ratio)
system.cpu.icache.overallMissRate::cpu.inst     0.036808                       # miss rate for overall accesses (Ratio)
system.cpu.icache.overallMissRate::total     0.036808                       # miss rate for overall accesses (Ratio)
system.cpu.icache.demandAvgMissLatency::cpu.inst 57652.257709                       # average overall miss latency in ticks ((Tick/Count))
system.cpu.icache.demandAvgMissLatency::total 57652.257709                       # average overall miss latency in ticks ((Tick/Count))
system.cpu.icache.overallAvgMissLatency::cpu.inst 57652.257709                       # average overall miss latency ((Tick/Count))
system.cpu.icache.overallAvgMissLatency::total 57652.257709                       # average overall miss latency ((Tick/Count))
system.cpu.icache.blockedCycles::no_mshrs          502                       # number of cycles access was blocked (Cycle)
system.cpu.icache.blockedCycles::no_targets            0                       # number of cycles access was blocked (Cycle)
system.cpu.icache.blockedCauses::no_mshrs            5                       # number of times access was blocked (Count)
system.cpu.icache.blockedCauses::no_targets            0                       # number of times access was blocked (Count)
system.cpu.icache.avgBlocked::no_mshrs     100.400000                       # average number of cycles each access was blocked ((Cycle/Count))
system.cpu.icache.avgBlocked::no_targets          nan                       # average number of cycles each access was blocked ((Cycle/Count))
system.cpu.icache.writebacks::writebacks          842                       # number of writebacks (Count)
system.cpu.icache.writebacks::total               842                       # number of writebacks (Count)
system.cpu.icache.demandMshrHits::cpu.inst          469                       # number of demand (read+write) MSHR hits (Count)
system.cpu.icache.demandMshrHits::total           469                       # number of demand (read+write) MSHR hits (Count)
system.cpu.icache.overallMshrHits::cpu.inst          469                       # number of overall MSHR hits (Count)
system.cpu.icache.overallMshrHits::total          469                       # number of overall MSHR hits (Count)
system.cpu.icache.demandMshrMisses::cpu.inst         1347                       # number of demand (read+write) MSHR misses (Count)
system.cpu.icache.demandMshrMisses::total         1347                       # number of demand (read+write) MSHR misses (Count)
system.cpu.icache.overallMshrMisses::cpu.inst         1347                       # number of overall MSHR misses (Count)
system.cpu.icache.overallMshrMisses::total         1347                       # number of overall MSHR misses (Count)
system.cpu.icache.demandMshrMissLatency::cpu.inst     81811500                       # number of demand (read+write) MSHR miss ticks (Tick)
system.cpu.icache.demandMshrMissLatency::total     81811500                       # number of demand (read+write) MSHR miss ticks (Tick)
system.cpu.icache.overallMshrMissLatency::cpu.inst     81811500                       # number of overall MSHR miss ticks (Tick)
system.cpu.icache.overallMshrMissLatency::total     81811500                       # number of overall MSHR miss ticks (Tick)
system.cpu.icache.demandMshrMissRate::cpu.inst     0.027302                       # mshr miss ratio for demand accesses (Ratio)
system.cpu.icache.demandMshrMissRate::total     0.027302                       # mshr miss ratio for demand accesses (Ratio)
system.cpu.icache.overallMshrMissRate::cpu.inst     0.027302                       # mshr miss ratio for overall accesses (Ratio)
system.cpu.icache.overallMshrMissRate::total     0.027302                       # mshr miss ratio for overall accesses (Ratio)
system.cpu.icache.demandAvgMshrMissLatency::cpu.inst 60736.080178                       # average overall mshr miss latency ((Tick/Count))
system.cpu.icache.demandAvgMshrMissLatency::total 60736.080178                       # average overall mshr miss latency ((Tick/Count))
system.cpu.icache.overallAvgMshrMissLatency::cpu.inst 60736.080178                       # average overall mshr miss latency ((Tick/Count))
system.cpu.icache.overallAvgMshrMissLatency::total 60736.080178                       # average overall mshr miss latency ((Tick/Count))
system.cpu.icache.replacements                    842                       # number of replacements (Count)
system.cpu.icache.ReadReq.hits::cpu.inst        47521                       # number of ReadReq hits (Count)
system.cpu.icache.ReadReq.hits::total           47521                       # number of ReadReq hits (Count)
system.cpu.icache.ReadReq.misses::cpu.inst         1816                       # number of ReadReq misses (Count)
system.cpu.icache.ReadReq.misses::total          1816                       # number of ReadReq misses (Count)
system.cpu.icache.ReadReq.missLatency::cpu.inst    104696500                       # number of ReadReq miss ticks (Tick)
system.cpu.icache.ReadReq.missLatency::total    104696500                       # number of ReadReq miss ticks (Tick)
system.cpu.icache.ReadReq.accesses::cpu.inst        49337                       # number of ReadReq accesses(hits+misses) (Count)
system.cpu.icache.ReadReq.accesses::total        49337                       # number of ReadReq accesses(hits+misses) (Count)
system.cpu.icache.ReadReq.missRate::cpu.inst     0.036808                       # miss rate for ReadReq accesses (Ratio)
system.cpu.icache.ReadReq.missRate::total     0.036808                       # miss rate for ReadReq accesses (Ratio)
system.cpu.icache.ReadReq.avgMissLatency::cpu.inst 57652.257709                       # average ReadReq miss latency ((Tick/Count))
system.cpu.icache.ReadReq.avgMissLatency::total 57652.257709                       # average ReadReq miss latency ((Tick/Count))
system.cpu.icache.ReadReq.mshrHits::cpu.inst          469                       # number of ReadReq MSHR hits (Count)
system.cpu.icache.ReadReq.mshrHits::total          469                       # number of ReadReq MSHR hits (Count)
system.cpu.icache.ReadReq.mshrMisses::cpu.inst         1347                       # number of ReadReq MSHR misses (Count)
system.cpu.icache.ReadReq.mshrMisses::total         1347                       # number of ReadReq MSHR misses (Count)
system.cpu.icache.ReadReq.mshrMissLatency::cpu.inst     81811500                       # number of ReadReq MSHR miss ticks (Tick)
system.cpu.icache.ReadReq.mshrMissLatency::total     81811500                       # number of ReadReq MSHR miss ticks (Tick)
system.cpu.icache.ReadReq.mshrMissRate::cpu.inst     0.027302                       # mshr miss rate for ReadReq accesses (Ratio)
system.cpu.icache.ReadReq.mshrMissRate::total     0.027302                       # mshr miss rate for ReadReq accesses (Ratio)
system.cpu.icache.ReadReq.avgMshrMissLatency::cpu.inst 60736.080178                       # average ReadReq mshr miss latency ((Tick/Count))
system.cpu.icache.ReadReq.avgMshrMissLatency::total 60736.080178                       # average ReadReq mshr miss latency ((Tick/Count))
system.cpu.icache.power_state.pwrStateResidencyTicks::UNDEFINED  95154978500                       # Cumulative time (in ticks) in various power states (Tick)
system.cpu.icache.tags.tagsInUse           504.827435                       # Average ticks per tags in use ((Tick/Count))
system.cpu.icache.tags.totalRefs                48868                       # Total number of references to valid blocks. (Count)
system.cpu.icache.tags.sampledRefs               1347                       # Sample count of references to valid blocks. (Count)
system.cpu.icache.tags.avgRefs              36.279139                       # Average number of references to valid blocks. ((Count/Count))
system.cpu.icache.tags.warmupTick               77000                       # The tick when the warmup percentage was hit. (Tick)
system.cpu.icache.tags.occupancies::cpu.inst   504.827435                       # Average occupied blocks per tick, per requestor ((Count/Tick))
system.cpu.icache.tags.avgOccs::cpu.inst     0.985991                       # Average percentage of cache occupancy ((Ratio/Tick))
system.cpu.icache.tags.avgOccs::total        0.985991                       # Average percentage of cache occupancy ((Ratio/Tick))
system.cpu.icache.tags.occupanciesTaskId::1024          505                       # Occupied blocks per task id (Count)
system.cpu.icache.tags.ageTaskId_1024::4          505                       # Occupied blocks per task id, per block age (Count)
system.cpu.icache.tags.ratioOccsTaskId::1024     0.986328                       # Ratio of occupied blocks and all blocks, per task id (Ratio)
system.cpu.icache.tags.tagAccesses             100021                       # Number of tag accesses (Count)
system.cpu.icache.tags.dataAccesses            100021                       # Number of data accesses (Count)
system.cpu.icache.tags.power_state.pwrStateResidencyTicks::UNDEFINED  95154978500                       # Cumulative time (in ticks) in various power states (Tick)
system.cpu.iew.idleCycles                           0                       # Number of cycles IEW is idle (Cycle)
system.cpu.iew.squashCycles                     28601                       # Number of cycles IEW is squashing (Cycle)
system.cpu.iew.blockCycles                     222932                       # Number of cycles IEW is blocking (Cycle)
system.cpu.iew.unblockCycles                 82139053                       # Number of cycles IEW is unblocking (Cycle)
system.cpu.iew.dispatchedInsts               21474935                       # Number of instructions dispatched to IQ (Count)
system.cpu.iew.dispSquashedInsts                  522                       # Number of squashed instructions skipped by dispatch (Count)
system.cpu.iew.dispLoadInsts                    89973                       # Number of dispatched load instructions (Count)
system.cpu.iew.dispStoreInsts                11936834                       # Number of dispatched store instructions (Count)
system.cpu.iew.dispNonSpecInsts                    96                       # Number of dispatched non-speculative instructions (Count)
system.cpu.iew.iqFullEvents                       570                       # Number of times the IQ has become full, causing a stall (Count)
system.cpu.iew.lsqFullEvents                 82159961                       # Number of times the LSQ has become full, causing a stall (Count)
system.cpu.iew.memOrderViolationEvents            115                       # Number of memory order violations (Count)
system.cpu.iew.predictedTakenIncorrect           2459                       # Number of branches that were predicted taken incorrectly (Count)
system.cpu.iew.predictedNotTakenIncorrect         4260                       # Number of branches that were predicted not taken incorrectly (Count)
system.cpu.iew.branchMispredicts                 6719                       # Number of branch mispredicts detected at execute (Count)
system.cpu.iew.instsToCommit                 21364171                       # Cumulative count of insts sent to commit (Count)
system.cpu.iew.writebackCount                20703958                       # Cumulative count of insts written-back (Count)
system.cpu.iew.producerInst                   7604441                       # Number of instructions producing a value (Count)
system.cpu.iew.consumerInst                   9922218                       # Number of instructions consuming a value (Count)
system.cpu.iew.wbRate                        0.108791                       # Insts written-back per cycle ((Count/Cycle))
system.cpu.iew.wbFanout                      0.766405                       # Average fanout of values written-back ((Count/Count))
system.cpu.interrupts.clk_domain.clock           8000                       # Clock period in ticks (Tick)
system.cpu.itb_walker_cache.blockedCycles::no_mshrs            0                       # number of cycles access was blocked (Cycle)
system.cpu.itb_walker_cache.blockedCycles::no_targets            0                       # number of cycles access was blocked (Cycle)
system.cpu.itb_walker_cache.blockedCauses::no_mshrs            0                       # number of times access was blocked (Count)
system.cpu.itb_walker_cache.blockedCauses::no_targets            0                       # number of times access was blocked (Count)
system.cpu.itb_walker_cache.avgBlocked::no_mshrs          nan                       # average number of cycles each access was blocked ((Cycle/Count))
system.cpu.itb_walker_cache.avgBlocked::no_targets          nan                       # average number of cycles each access was blocked ((Cycle/Count))
system.cpu.itb_walker_cache.replacements            0                       # number of replacements (Count)
system.cpu.itb_walker_cache.power_state.pwrStateResidencyTicks::UNDEFINED  95154978500                       # Cumulative time (in ticks) in various power states (Tick)
system.cpu.itb_walker_cache.tags.tagsInUse            0                       # Average ticks per tags in use ((Tick/Count))
system.cpu.itb_walker_cache.tags.totalRefs            0                       # Total number of references to valid blocks. (Count)
system.cpu.itb_walker_cache.tags.sampledRefs            0                       # Sample count of references to valid blocks. (Count)
system.cpu.itb_walker_cache.tags.avgRefs          nan                       # Average number of references to valid blocks. ((Count/Count))
system.cpu.itb_walker_cache.tags.warmupTick            0                       # The tick when the warmup percentage was hit. (Tick)
system.cpu.itb_walker_cache.tags.tagAccesses            0                       # Number of tag accesses (Count)
system.cpu.itb_walker_cache.tags.dataAccesses            0                       # Number of data accesses (Count)
system.cpu.itb_walker_cache.tags.power_state.pwrStateResidencyTicks::UNDEFINED  95154978500                       # Cumulative time (in ticks) in various power states (Tick)
system.cpu.lsq0.forwLoads                        4615                       # Number of loads that had data forwarded from stores (Count)
system.cpu.lsq0.squashedLoads                   38575                       # Number of loads squashed (Count)
system.cpu.lsq0.ignoredResponses                   69                       # Number of memory responses ignored because the instruction is squashed (Count)
system.cpu.lsq0.memOrderViolation                 115                       # Number of memory ordering violations (Count)
system.cpu.lsq0.squashedStores                 709567                       # Number of stores squashed (Count)
system.cpu.lsq0.rescheduledLoads                   23                       # Number of loads that were rescheduled (Count)
system.cpu.lsq0.blockedByCache                    275                       # Number of times an access to memory failed due to the cache being blocked (Count)
system.cpu.lsq0.loadToUse::samples              51398                       # Distribution of cycle latency between the first time a load is issued and its completion (Unspecified)
system.cpu.lsq0.loadToUse::mean             17.294097                       # Distribution of cycle latency between the first time a load is issued and its completion (Unspecified)
system.cpu.lsq0.loadToUse::stdev            42.775621                       # Distribution of cycle latency between the first time a load is issued and its completion (Unspecified)
system.cpu.lsq0.loadToUse::0-9                  44511     86.60%     86.60% # Distribution of cycle latency between the first time a load is issued and its completion (Unspecified)
system.cpu.lsq0.loadToUse::10-19                  329      0.64%     87.24% # Distribution of cycle latency between the first time a load is issued and its completion (Unspecified)
system.cpu.lsq0.loadToUse::20-29                  222      0.43%     87.67% # Distribution of cycle latency between the first time a load is issued and its completion (Unspecified)
system.cpu.lsq0.loadToUse::30-39                  129      0.25%     87.92% # Distribution of cycle latency between the first time a load is issued and its completion (Unspecified)
system.cpu.lsq0.loadToUse::40-49                  167      0.32%     88.25% # Distribution of cycle latency between the first time a load is issued and its completion (Unspecified)
system.cpu.lsq0.loadToUse::50-59                  207      0.40%     88.65% # Distribution of cycle latency between the first time a load is issued and its completion (Unspecified)
system.cpu.lsq0.loadToUse::60-69                  225      0.44%     89.09% # Distribution of cycle latency between the first time a load is issued and its completion (Unspecified)
system.cpu.lsq0.loadToUse::70-79                  219      0.43%     89.52% # Distribution of cycle latency between the first time a load is issued and its completion (Unspecified)
system.cpu.lsq0.loadToUse::80-89                  415      0.81%     90.32% # Distribution of cycle latency between the first time a load is issued and its completion (Unspecified)
system.cpu.lsq0.loadToUse::90-99                  266      0.52%     90.84% # Distribution of cycle latency between the first time a load is issued and its completion (Unspecified)
[...]
system.mem_ctrls.dram.perBankRdBursts::14        87775                       # Per bank write bursts (Count)
system.mem_ctrls.dram.perBankRdBursts::15        87804                       # Per bank write bursts (Count)
system.mem_ctrls.dram.perBankWrBursts::0        87632                       # Per bank write bursts (Count)
system.mem_ctrls.dram.perBankWrBursts::1        87610                       # Per bank write bursts (Count)
system.mem_ctrls.dram.perBankWrBursts::2        87631                       # Per bank write bursts (Count)
system.mem_ctrls.dram.perBankWrBursts::3        87613                       # Per bank write bursts (Count)
system.mem_ctrls.dram.perBankWrBursts::4        87606                       # Per bank write bursts (Count)
system.mem_ctrls.dram.perBankWrBursts::5        87621                       # Per bank write bursts (Count)
system.mem_ctrls.dram.perBankWrBursts::6        87624                       # Per bank write bursts (Count)
system.mem_ctrls.dram.perBankWrBursts::7        87529                       # Per bank write bursts (Count)
system.mem_ctrls.dram.perBankWrBursts::8        87598                       # Per bank write bursts (Count)
system.mem_ctrls.dram.perBankWrBursts::9        87517                       # Per bank write bursts (Count)
system.mem_ctrls.dram.perBankWrBursts::10        87480                       # Per bank write bursts (Count)
system.mem_ctrls.dram.perBankWrBursts::11        87537                       # Per bank write bursts (Count)
system.mem_ctrls.dram.perBankWrBursts::12        87534                       # Per bank write bursts (Count)
system.mem_ctrls.dram.perBankWrBursts::13        87512                       # Per bank write bursts (Count)
system.mem_ctrls.dram.perBankWrBursts::14        87599                       # Per bank write bursts (Count)
system.mem_ctrls.dram.perBankWrBursts::15        87626                       # Per bank write bursts (Count)
system.mem_ctrls.dram.totQLat             13371793250                       # Total ticks spent queuing (Tick)
system.mem_ctrls.dram.totBusLat            7025555000                       # Total ticks spent in databus transfers (Tick)
system.mem_ctrls.dram.totMemAccLat        39717624500                       # Total ticks spent from burst creation until serviced by the DRAM (Tick)
system.mem_ctrls.dram.avgQLat                 9516.54                       # Average queueing delay per DRAM burst ((Tick/Count))
system.mem_ctrls.dram.avgBusLat               5000.00                       # Average bus latency per DRAM burst ((Tick/Count))
system.mem_ctrls.dram.avgMemAccLat           28266.54                       # Average memory access latency per DRAM burst ((Tick/Count))
system.mem_ctrls.dram.readRowHits             1305457                       # Number of row buffer hits during reads (Count)
system.mem_ctrls.dram.writeRowHits            1303125                       # Number of row buffer hits during writes (Count)
system.mem_ctrls.dram.readRowHitRate            92.91                       # Row buffer hit rate for reads (Ratio)
system.mem_ctrls.dram.writeRowHitRate           93.00                       # Row buffer hit rate for writes (Ratio)
system.mem_ctrls.dram.bytesPerActivate::samples       197794                       # Bytes accessed per row activation (Byte)
system.mem_ctrls.dram.bytesPerActivate::mean   908.050032                       # Bytes accessed per row activation (Byte)
system.mem_ctrls.dram.bytesPerActivate::gmean   828.709641                       # Bytes accessed per row activation (Byte)
system.mem_ctrls.dram.bytesPerActivate::stdev   254.762799                       # Bytes accessed per row activation (Byte)
system.mem_ctrls.dram.bytesPerActivate::0-127         3654      1.85%      1.85% # Bytes accessed per row activation (Byte)
system.mem_ctrls.dram.bytesPerActivate::128-255         6146      3.11%      4.95% # Bytes accessed per row activation (Byte)
system.mem_ctrls.dram.bytesPerActivate::256-383         5529      2.80%      7.75% # Bytes accessed per row activation (Byte)
system.mem_ctrls.dram.bytesPerActivate::384-511         5819      2.94%     10.69% # Bytes accessed per row activation (Byte)
system.mem_ctrls.dram.bytesPerActivate::512-639         6345      3.21%     13.90% # Bytes accessed per row activation (Byte)
system.mem_ctrls.dram.bytesPerActivate::640-767         5651      2.86%     16.76% # Bytes accessed per row activation (Byte)
system.mem_ctrls.dram.bytesPerActivate::768-895         4861      2.46%     19.21% # Bytes accessed per row activation (Byte)
system.mem_ctrls.dram.bytesPerActivate::896-1023         4872      2.46%     21.68% # Bytes accessed per row activation (Byte)
system.mem_ctrls.dram.bytesPerActivate::1024-1151       154917     78.32%    100.00% # Bytes accessed per row activation (Byte)
system.mem_ctrls.dram.bytesPerActivate::total       197794                       # Bytes accessed per row activation (Byte)
system.mem_ctrls.dram.bytesRead              89927104                       # Total bytes read (Byte)
system.mem_ctrls.dram.bytesWritten           89681216                       # Total bytes written (Byte)
system.mem_ctrls.dram.avgRdBW              945.059370                       # Average DRAM read bandwidth in MiBytes/s ((Byte/Second))
system.mem_ctrls.dram.avgWrBW              942.475290                       # Average DRAM write bandwidth in MiBytes/s ((Byte/Second))
system.mem_ctrls.dram.peakBW                 12800.00                       # Theoretical peak bandwidth in MiByte/s ((Byte/Second))
system.mem_ctrls.dram.busUtil                   14.75                       # Data bus utilization in percentage (Ratio)
system.mem_ctrls.dram.busUtilRead                7.38                       # Data bus utilization in percentage for reads (Ratio)
system.mem_ctrls.dram.busUtilWrite               7.36                       # Data bus utilization in percentage for writes (Ratio)
system.mem_ctrls.dram.pageHitRate               92.95                       # Row buffer hit rate, read and write combined (Ratio)
system.mem_ctrls.dram.power_state.pwrStateResidencyTicks::UNDEFINED  95154978500                       # Cumulative time (in ticks) in various power states (Tick)
system.mem_ctrls.dram.rank0.actEnergy       706652940                       # Energy for activate commands per rank (pJ) (Joule)
system.mem_ctrls.dram.rank0.preEnergy       375587355                       # Energy for precharge commands per rank (pJ) (Joule)
system.mem_ctrls.dram.rank0.readEnergy     5017613580                       # Energy for read commands per rank (pJ) (Joule)
system.mem_ctrls.dram.rank0.writeEnergy    3658520520                       # Energy for write commands per rank (pJ) (Joule)
system.mem_ctrls.dram.rank0.refreshEnergy 7510900800.000001                       # Energy for refresh commands per rank (pJ) (Joule)
system.mem_ctrls.dram.rank0.actBackEnergy  33119090190                       # Energy for active background per rank (pJ) (Joule)
system.mem_ctrls.dram.rank0.preBackEnergy   8649751680                       # Energy for precharge background per rank (pJ) (Joule)
system.mem_ctrls.dram.rank0.actPowerDownEnergy            0                       # Energy for active power-down per rank (pJ) (Joule)
system.mem_ctrls.dram.rank0.prePowerDownEnergy            0                       # Energy for precharge power-down per rank (pJ) (Joule)
system.mem_ctrls.dram.rank0.selfRefreshEnergy            0                       # Energy for self refresh per rank (pJ) (Joule)
system.mem_ctrls.dram.rank0.totalEnergy   59038117065                       # Total energy per rank (pJ) (Joule)
system.mem_ctrls.dram.rank0.averagePower   620.441705                       # Core power per rank (mW) (Watt)
system.mem_ctrls.dram.rank0.totalIdleTime            0                       # Total Idle time Per DRAM Rank (Tick)
system.mem_ctrls.dram.rank0.pwrStateTime::IDLE  21569370500                       # Time in different power states (Tick)
system.mem_ctrls.dram.rank0.pwrStateTime::REF   3177200000                       # Time in different power states (Tick)
system.mem_ctrls.dram.rank0.pwrStateTime::SREF            0                       # Time in different power states (Tick)
system.mem_ctrls.dram.rank0.pwrStateTime::PRE_PDN            0                       # Time in different power states (Tick)
system.mem_ctrls.dram.rank0.pwrStateTime::ACT  70408408000                       # Time in different power states (Tick)
system.mem_ctrls.dram.rank0.pwrStateTime::ACT_PDN            0                       # Time in different power states (Tick)
system.mem_ctrls.dram.rank1.actEnergy       705624780                       # Energy for activate commands per rank (pJ) (Joule)
system.mem_ctrls.dram.rank1.preEnergy       375040875                       # Energy for precharge commands per rank (pJ) (Joule)
system.mem_ctrls.dram.rank1.readEnergy     5014878960                       # Energy for read commands per rank (pJ) (Joule)
system.mem_ctrls.dram.rank1.writeEnergy    3656103660                       # Energy for write commands per rank (pJ) (Joule)
system.mem_ctrls.dram.rank1.refreshEnergy 7510900800.000001                       # Energy for refresh commands per rank (pJ) (Joule)
system.mem_ctrls.dram.rank1.actBackEnergy  33138954690                       # Energy for active background per rank (pJ) (Joule)
system.mem_ctrls.dram.rank1.preBackEnergy   8633023680                       # Energy for precharge background per rank (pJ) (Joule)
system.mem_ctrls.dram.rank1.actPowerDownEnergy            0                       # Energy for active power-down per rank (pJ) (Joule)
system.mem_ctrls.dram.rank1.prePowerDownEnergy            0                       # Energy for precharge power-down per rank (pJ) (Joule)
system.mem_ctrls.dram.rank1.selfRefreshEnergy            0                       # Energy for self refresh per rank (pJ) (Joule)
system.mem_ctrls.dram.rank1.totalEnergy   59034527445                       # Total energy per rank (pJ) (Joule)
system.mem_ctrls.dram.rank1.averagePower   620.403981                       # Core power per rank (mW) (Watt)
system.mem_ctrls.dram.rank1.totalIdleTime            0                       # Total Idle time Per DRAM Rank (Tick)
system.mem_ctrls.dram.rank1.pwrStateTime::IDLE  21526341250                       # Time in different power states (Tick)
system.mem_ctrls.dram.rank1.pwrStateTime::REF   3177200000                       # Time in different power states (Tick)
system.mem_ctrls.dram.rank1.pwrStateTime::SREF            0                       # Time in different power states (Tick)
system.mem_ctrls.dram.rank1.pwrStateTime::PRE_PDN            0                       # Time in different power states (Tick)
system.mem_ctrls.dram.rank1.pwrStateTime::ACT  70451437250                       # Time in different power states (Tick)
system.mem_ctrls.dram.rank1.pwrStateTime::ACT_PDN            0                       # Time in different power states (Tick)
system.mem_ctrls.power_state.pwrStateResidencyTicks::UNDEFINED  95154978500                       # Cumulative time (in ticks) in various power states (Tick)
system.membus.transDist::ReadResp                3805                       # Transaction distribution (Count)
system.membus.transDist::WritebackDirty       1400519                       # Transaction distribution (Count)
system.membus.transDist::WritebackClean           842                       # Transaction distribution (Count)
system.membus.transDist::CleanEvict              2350                       # Transaction distribution (Count)
system.membus.transDist::ReadExReq            1401435                       # Transaction distribution (Count)
system.membus.transDist::ReadExResp           1401435                       # Transaction distribution (Count)
system.membus.transDist::ReadCleanReq            1347                       # Transaction distribution (Count)
system.membus.transDist::ReadSharedReq           2458                       # Transaction distribution (Count)
system.membus.pktCount_system.cpu.icache.mem_side_port::system.mem_ctrls.port         3536                       # Packet count per connected requestor and responder (Count)
system.membus.pktCount_system.cpu.icache.mem_side_port::total         3536                       # Packet count per connected requestor and responder (Count)
system.membus.pktCount_system.cpu.dcache.mem_side_port::system.mem_ctrls.port      4210655                       # Packet count per connected requestor and responder (Count)
system.membus.pktCount_system.cpu.dcache.mem_side_port::total      4210655                       # Packet count per connected requestor and responder (Count)
system.membus.pktCount::total                 4214191                       # Packet count per connected requestor and responder (Count)
system.membus.pktSize_system.cpu.icache.mem_side_port::system.mem_ctrls.port       140096                       # Cumulative packet size per connected requestor and responder (Byte)
system.membus.pktSize_system.cpu.icache.mem_side_port::total       140096                       # Cumulative packet size per connected requestor and responder (Byte)
system.membus.pktSize_system.cpu.dcache.mem_side_port::system.mem_ctrls.port    179482368                       # Cumulative packet size per connected requestor and responder (Byte)
system.membus.pktSize_system.cpu.dcache.mem_side_port::total    179482368                       # Cumulative packet size per connected requestor and responder (Byte)
system.membus.pktSize::total                179622464                       # Cumulative packet size per connected requestor and responder (Byte)
system.membus.snoops                                0                       # Total snoops (Count)
system.membus.snoopTraffic                          0                       # Total snoop traffic (Byte)
system.membus.snoopFanout::samples            1405240                       # Request fanout histogram (Count)
system.membus.snoopFanout::mean              0.000004                       # Request fanout histogram (Count)
system.membus.snoopFanout::stdev             0.002066                       # Request fanout histogram (Count)
system.membus.snoopFanout::underflows               0      0.00%      0.00% # Request fanout histogram (Count)
system.membus.snoopFanout::0                  1405234    100.00%    100.00% # Request fanout histogram (Count)
system.membus.snoopFanout::1                        6      0.00%    100.00% # Request fanout histogram (Count)
system.membus.snoopFanout::2                        0      0.00%    100.00% # Request fanout histogram (Count)
system.membus.snoopFanout::3                        0      0.00%    100.00% # Request fanout histogram (Count)
system.membus.snoopFanout::4                        0      0.00%    100.00% # Request fanout histogram (Count)
system.membus.snoopFanout::overflows                0      0.00%    100.00% # Request fanout histogram (Count)
system.membus.snoopFanout::min_value                0                       # Request fanout histogram (Count)
system.membus.snoopFanout::max_value                1                       # Request fanout histogram (Count)
system.membus.snoopFanout::total              1405240                       # Request fanout histogram (Count)
system.membus.power_state.pwrStateResidencyTicks::UNDEFINED  95154978500                       # Cumulative time (in ticks) in various power states (Tick)
system.membus.reqLayer2.occupancy          8415164500                       # Layer occupancy (ticks) (Tick)
system.membus.reqLayer2.utilization               0.1                       # Layer utilization (Ratio)
system.membus.respLayer1.occupancy            7117750                       # Layer occupancy (ticks) (Tick)
system.membus.respLayer1.utilization              0.0                       # Layer utilization (Ratio)
system.membus.respLayer2.occupancy         7389753750                       # Layer occupancy (ticks) (Tick)
system.membus.respLayer2.utilization              0.1                       # Layer utilization (Ratio)
system.membus.snoop_filter.totRequests        2808951                       # Total number of requests made to the snoop filter. (Count)
system.membus.snoop_filter.hitSingleRequests      1403711                       # Number of requests hitting in the snoop filter with a single holder of the requested data. (Count)
system.membus.snoop_filter.hitMultiRequests            6                       # Number of requests hitting in the snoop filter with multiple (>1) holders of the requested data. (Count)
system.membus.snoop_filter.totSnoops                0                       # Total number of snoops made to the snoop filter. (Count)
system.membus.snoop_filter.hitSingleSnoops            0                       # Number of snoops hitting in the snoop filter with a single holder of the requested data. (Count)
system.membus.snoop_filter.hitMultiSnoops            0                       # Number of snoops hitting in the snoop filter with multiple (>1) holders of the requested data. (Count)
system.voltage_domain.voltage                       1                       # Voltage in Volts (Volt)
system.workload.inst.arm                            0                       # number of arm instructions executed (Count)
system.workload.inst.quiesce                        0                       # number of quiesce instructions executed (Count)
system.cpu.loadValPred.constant_verification_unit.constLoadHits          665                       # Number of loads marked constant that hit in the CVU CAM (Unspecified)
system.cpu.loadValPred.constant_verification_unit.constLoadMisses         1636                       # Number of loads marked constant that missed in the CVU CAM (Unspecified)
system.cpu.loadValPred.constant_verification_unit.numCAMReplacements          875                       # Number of CVU CAM entries replaced (Unspecified)
system.cpu.loadValPred.constant_verification_unit.numLoadAccesses         2301                       # Number of loads marked constant which accessed the CVU (Unspecified)
system.cpu.loadValPred.constant_verification_unit.numStoreAccesses     11276297                       # Number of store instructions which accessed the CVU (Unspecified)
system.cpu.loadValPred.constant_verification_unit.numStoreHits          351                       # Number of stores that hit in the CVU CAM (Unspecified)
system.cpu.loadValPred.constant_verification_unit.numStoreMisses     11275946                       # Number of stores that missed in the CVU CAM (Unspecified)
system.cpu.loadValPred.numConstLoads             1358                       # Number of loads classified as constant (Unspecified)
system.cpu.loadValPred.numConstLoadsCorrect          665                       # Number of constant loads correctly predicted (Unspecified)
system.cpu.loadValPred.numConstLoadsMispredicted         1636                       # Number of constant loads incorrectly predicted (Unspecified)
system.cpu.loadValPred.numConstValOne              21                       # Number of constant loads with value 1 (Unspecified)
system.cpu.loadValPred.numConstValZero            107                       # Number of constant loads with value 0 (Unspecified)
system.cpu.loadValPred.numPredictableLoads        16391                       # Number of loads classified as predictable (Unspecified)
system.cpu.loadValPred.numPredictableLoadsCorrect         9980                       # Number of loads correctly classified as predictable (Unspecified)
system.cpu.loadValPred.numPredictableLoadsIncorrect         2456                       # Number of loads incorrectly classified as predictable (Unspecified)
system.cpu.loadValPred.totalLoads               89973                       # Total loads processed by the Load value predictor (Unspecified)

---------- End Simulation Statistics   ----------
