
---------- Begin Simulation Statistics ----------
simSeconds                                   0.005648                       # Number of seconds simulated (Second)
simTicks                                   5647969000                       # Number of ticks simulated (Tick)
finalTick                                  5647969000                       # Number of ticks from beginning of simulation (restored from checkpoints and never reset) (Tick)
simFreq                                  1000000000000                       # The number of ticks per simulated second ((Tick/Second))
hostSeconds                                    104.35                       # Real time elapsed on the host (Second)
hostTickRate                                 54125661                       # The number of ticks simulated per host second (ticks/s) ((Tick/Second))
hostMemory                                    8772316                       # Number of bytes of host memory used (Byte)
simInsts                                     10000001                       # Number of instructions simulated (Count)
simOps                                       18680745                       # Number of ops (including micro ops) simulated (Count)
hostInstRate                                    95832                       # Simulator instruction rate (inst/s) ((Count/Second))
hostOpRate                                     179021                       # Simulator op (including micro ops) rate (op/s) ((Count/Second))
system.clk_domain.clock                          1000                       # Clock period in ticks (Tick)
system.cpu.numCycles                         11295939                       # Number of cpu cycles simulated (Cycle)
system.cpu.numWorkItemsStarted                      0                       # Number of work items this cpu started (Count)
system.cpu.numWorkItemsCompleted                    0                       # Number of work items this cpu completed (Count)
system.cpu.instsAdded                        26003421                       # Number of instructions added to the IQ (excludes non-spec) (Count)
system.cpu.nonSpecInstsAdded                      326                       # Number of non-speculative instructions added to the IQ (Count)
system.cpu.instsIssued                       23116037                       # Number of instructions issued (Count)
system.cpu.squashedInstsIssued                  50344                       # Number of squashed instructions issued (Count)
system.cpu.squashedInstsExamined              7322988                       # Number of squashed instructions iterated over during squash; mainly for profiling (Count)
system.cpu.squashedOperandsExamined          17310756                       # Number of squashed operands that are examined and possibly removed from graph (Count)
system.cpu.squashedNonSpecRemoved                 173                       # Number of squashed non-spec instructions that were removed (Count)
system.cpu.numIssuedDist::samples            10616931                       # Number of insts issued each cycle (Count)
system.cpu.numIssuedDist::mean               2.177281                       # Number of insts issued each cycle (Count)
system.cpu.numIssuedDist::stdev              2.319644                       # Number of insts issued each cycle (Count)
system.cpu.numIssuedDist::underflows                0      0.00%      0.00% # Number of insts issued each cycle (Count)
system.cpu.numIssuedDist::0                   4217324     39.72%     39.72% # Number of insts issued each cycle (Count)
system.cpu.numIssuedDist::1                    980145      9.23%     48.95% # Number of insts issued each cycle (Count)
system.cpu.numIssuedDist::2                   1281978     12.07%     61.03% # Number of insts issued each cycle (Count)
system.cpu.numIssuedDist::3                   1077263     10.15%     71.18% # Number of insts issued each cycle (Count)
system.cpu.numIssuedDist::4                    958541      9.03%     80.20% # Number of insts issued each cycle (Count)
system.cpu.numIssuedDist::5                    825149      7.77%     87.98% # Number of insts issued each cycle (Count)
system.cpu.numIssuedDist::6                    735240      6.93%     94.90% # Number of insts issued each cycle (Count)
system.cpu.numIssuedDist::7                    361530      3.41%     98.31% # Number of insts issued each cycle (Count)
system.cpu.numIssuedDist::8                    179761      1.69%    100.00% # Number of insts issued each cycle (Count)
system.cpu.numIssuedDist::overflows                 0      0.00%    100.00% # Number of insts issued each cycle (Count)
system.cpu.numIssuedDist::min_value                 0                       # Number of insts issued each cycle (Count)
system.cpu.numIssuedDist::max_value                 8                       # Number of insts issued each cycle (Count)
system.cpu.numIssuedDist::total              10616931                       # Number of insts issued each cycle (Count)
system.cpu.statFuBusy::No_OpClass                   0      0.00%      0.00% # attempts to use FU when none available (Count)
system.cpu.statFuBusy::IntAlu                  314050     86.47%     86.47% # attempts to use FU when none available (Count)
system.cpu.statFuBusy::IntMult                      0      0.00%     86.47% # attempts to use FU when none available (Count)
system.cpu.statFuBusy::IntDiv                       0      0.00%     86.47% # attempts to use FU when none available (Count)
system.cpu.statFuBusy::FloatAdd                     0      0.00%     86.47% # attempts to use FU when none available (Count)
system.cpu.statFuBusy::FloatCmp                     0      0.00%     86.47% # attempts to use FU when none available (Count)
system.cpu.statFuBusy::FloatCvt                     8      0.00%     86.47% # attempts to use FU when none available (Count)
system.cpu.statFuBusy::FloatMult                    0      0.00%     86.47% # attempts to use FU when none available (Count)
system.cpu.statFuBusy::FloatMultAcc                 0      0.00%     86.47% # attempts to use FU when none available (Count)
system.cpu.statFuBusy::FloatDiv                     0      0.00%     86.47% # attempts to use FU when none available (Count)
system.cpu.statFuBusy::FloatMisc                    0      0.00%     86.47% # attempts to use FU when none available (Count)
system.cpu.statFuBusy::FloatSqrt                    0      0.00%     86.47% # attempts to use FU when none available (Count)
system.cpu.statFuBusy::SimdAdd                      0      0.00%     86.47% # attempts to use FU when none available (Count)
system.cpu.statFuBusy::SimdAddAcc                   0      0.00%     86.47% # attempts to use FU when none available (Count)
system.cpu.statFuBusy::SimdAlu                      0      0.00%     86.47% # attempts to use FU when none available (Count)
system.cpu.statFuBusy::SimdCmp                      0      0.00%     86.47% # attempts to use FU when none available (Count)
system.cpu.statFuBusy::SimdCvt                      4      0.00%     86.47% # attempts to use FU when none available (Count)
system.cpu.statFuBusy::SimdMisc                     0      0.00%     86.47% # attempts to use FU when none available (Count)
system.cpu.statFuBusy::SimdMult                     0      0.00%     86.47% # attempts to use FU when none available (Count)
system.cpu.statFuBusy::SimdMultAcc                  0      0.00%     86.47% # attempts to use FU when none available (Count)
system.cpu.statFuBusy::SimdShift                    4      0.00%     86.48% # attempts to use FU when none available (Count)
system.cpu.statFuBusy::SimdShiftAcc                 0      0.00%     86.48% # attempts to use FU when none available (Count)
system.cpu.statFuBusy::SimdDiv                      0      0.00%     86.48% # attempts to use FU when none available (Count)
system.cpu.statFuBusy::SimdSqrt                     0      0.00%     86.48% # attempts to use FU when none available (Count)
system.cpu.statFuBusy::SimdFloatAdd                 0      0.00%     86.48% # attempts to use FU when none available (Count)
system.cpu.statFuBusy::SimdFloatAlu                 0      0.00%     86.48% # attempts to use FU when none available (Count)
system.cpu.statFuBusy::SimdFloatCmp                 0      0.00%     86.48% # attempts to use FU when none available (Count)
system.cpu.statFuBusy::SimdFloatCvt                 0      0.00%     86.48% # attempts to use FU when none available (Count)
system.cpu.statFuBusy::SimdFloatDiv                 0      0.00%     86.48% # attempts to use FU when none available (Count)
system.cpu.statFuBusy::SimdFloatMisc                0      0.00%     86.48% # attempts to use FU when none available (Count)
system.cpu.statFuBusy::SimdFloatMult                0      0.00%     86.48% # attempts to use FU when none available (Count)
system.cpu.statFuBusy::SimdFloatMultAcc             0      0.00%     86.48% # attempts to use FU when none available (Count)
system.cpu.statFuBusy::SimdFloatSqrt                0      0.00%     86.48% # attempts to use FU when none available (Count)
system.cpu.statFuBusy::SimdReduceAdd                0      0.00%     86.48% # attempts to use FU when none available (Count)
system.cpu.statFuBusy::SimdReduceAlu                0      0.00%     86.48% # attempts to use FU when none available (Count)
system.cpu.statFuBusy::SimdReduceCmp                0      0.00%     86.48% # attempts to use FU when none available (Count)
system.cpu.statFuBusy::SimdFloatReduceAdd            0      0.00%     86.48% # attempts to use FU when none available (Count)
system.cpu.statFuBusy::SimdFloatReduceCmp            0      0.00%     86.48% # attempts to use FU when none available (Count)
system.cpu.statFuBusy::SimdAes                      0      0.00%     86.48% # attempts to use FU when none available (Count)
system.cpu.statFuBusy::SimdAesMix                   0      0.00%     86.48% # attempts to use FU when none available (Count)
system.cpu.statFuBusy::SimdSha1Hash                 0      0.00%     86.48% # attempts to use FU when none available (Count)
system.cpu.statFuBusy::SimdSha1Hash2                0      0.00%     86.48% # attempts to use FU when none available (Count)
system.cpu.statFuBusy::SimdSha256Hash               0      0.00%     86.48% # attempts to use FU when none available (Count)
system.cpu.statFuBusy::SimdSha256Hash2              0      0.00%     86.48% # attempts to use FU when none available (Count)
system.cpu.statFuBusy::SimdShaSigma2                0      0.00%     86.48% # attempts to use FU when none available (Count)
system.cpu.statFuBusy::SimdShaSigma3                0      0.00%     86.48% # attempts to use FU when none available (Count)
system.cpu.statFuBusy::SimdPredAlu                  0      0.00%     86.48% # attempts to use FU when none available (Count)
system.cpu.statFuBusy::MemRead                  37670     10.37%     96.85% # attempts to use FU when none available (Count)
system.cpu.statFuBusy::MemWrite                 11019      3.03%     99.88% # attempts to use FU when none available (Count)
system.cpu.statFuBusy::FloatMemRead               413      0.11%    100.00% # attempts to use FU when none available (Count)
system.cpu.statFuBusy::FloatMemWrite               16      0.00%    100.00% # attempts to use FU when none available (Count)
system.cpu.statFuBusy::IprAccess                    0      0.00%    100.00% # attempts to use FU when none available (Count)
system.cpu.statFuBusy::InstPrefetch                 0      0.00%    100.00% # attempts to use FU when none available (Count)
system.cpu.statIssuedInstType_0::No_OpClass        84133      0.36%      0.36% # Number of instructions issued per FU type, per thread (Count)
system.cpu.statIssuedInstType_0::IntAlu      18678208     80.80%     81.17% # Number of instructions issued per FU type, per thread (Count)
system.cpu.statIssuedInstType_0::IntMult        11285      0.05%     81.21% # Number of instructions issued per FU type, per thread (Count)
system.cpu.statIssuedInstType_0::IntDiv        158229      0.68%     81.90% # Number of instructions issued per FU type, per thread (Count)
system.cpu.statIssuedInstType_0::FloatAdd        19836      0.09%     81.99% # Number of instructions issued per FU type, per thread (Count)
system.cpu.statIssuedInstType_0::FloatCmp            0      0.00%     81.99% # Number of instructions issued per FU type, per thread (Count)
system.cpu.statIssuedInstType_0::FloatCvt          354      0.00%     81.99% # Number of instructions issued per FU type, per thread (Count)
system.cpu.statIssuedInstType_0::FloatMult            0      0.00%     81.99% # Number of instructions issued per FU type, per thread (Count)
system.cpu.statIssuedInstType_0::FloatMultAcc            0      0.00%     81.99% # Number of instructions issued per FU type, per thread (Count)
system.cpu.statIssuedInstType_0::FloatDiv            0      0.00%     81.99% # Number of instructions issued per FU type, per thread (Count)
system.cpu.statIssuedInstType_0::FloatMisc            0      0.00%     81.99% # Number of instructions issued per FU type, per thread (Count)
system.cpu.statIssuedInstType_0::FloatSqrt            0      0.00%     81.99% # Number of instructions issued per FU type, per thread (Count)
system.cpu.statIssuedInstType_0::SimdAdd         1637      0.01%     81.99% # Number of instructions issued per FU type, per thread (Count)
system.cpu.statIssuedInstType_0::SimdAddAcc            0      0.00%     81.99% # Number of instructions issued per FU type, per thread (Count)
system.cpu.statIssuedInstType_0::SimdAlu        16207      0.07%     82.06% # Number of instructions issued per FU type, per thread (Count)
system.cpu.statIssuedInstType_0::SimdCmp            0      0.00%     82.06% # Number of instructions issued per FU type, per thread (Count)
system.cpu.statIssuedInstType_0::SimdCvt        26429      0.11%     82.18% # Number of instructions issued per FU type, per thread (Count)
system.cpu.statIssuedInstType_0::SimdMisc        18828      0.08%     82.26% # Number of instructions issued per FU type, per thread (Count)
system.cpu.statIssuedInstType_0::SimdMult            0      0.00%     82.26% # Number of instructions issued per FU type, per thread (Count)
system.cpu.statIssuedInstType_0::SimdMultAcc            0      0.00%     82.26% # Number of instructions issued per FU type, per thread (Count)
system.cpu.statIssuedInstType_0::SimdShift         1043      0.00%     82.26% # Number of instructions issued per FU type, per thread (Count)
system.cpu.statIssuedInstType_0::SimdShiftAcc            0      0.00%     82.26% # Number of instructions issued per FU type, per thread (Count)
system.cpu.statIssuedInstType_0::SimdDiv            0      0.00%     82.26% # Number of instructions issued per FU type, per thread (Count)
system.cpu.statIssuedInstType_0::SimdSqrt            0      0.00%     82.26% # Number of instructions issued per FU type, per thread (Count)
system.cpu.statIssuedInstType_0::SimdFloatAdd           22      0.00%     82.26% # Number of instructions issued per FU type, per thread (Count)
system.cpu.statIssuedInstType_0::SimdFloatAlu            0      0.00%     82.26% # Number of instructions issued per FU type, per thread (Count)
system.cpu.statIssuedInstType_0::SimdFloatCmp            0      0.00%     82.26% # Number of instructions issued per FU type, per thread (Count)
system.cpu.statIssuedInstType_0::SimdFloatCvt            5      0.00%     82.26% # Number of instructions issued per FU type, per thread (Count)
system.cpu.statIssuedInstType_0::SimdFloatDiv            9      0.00%     82.26% # Number of instructions issued per FU type, per thread (Count)
system.cpu.statIssuedInstType_0::SimdFloatMisc            0      0.00%     82.26% # Number of instructions issued per FU type, per thread (Count)
system.cpu.statIssuedInstType_0::SimdFloatMult           40      0.00%     82.26% # Number of instructions issued per FU type, per thread (Count)
system.cpu.statIssuedInstType_0::SimdFloatMultAcc            0      0.00%     82.26% # Number of instructions issued per FU type, per thread (Count)
system.cpu.statIssuedInstType_0::SimdFloatSqrt            0      0.00%     82.26% # Number of instructions issued per FU type, per thread (Count)
system.cpu.statIssuedInstType_0::SimdReduceAdd            0      0.00%     82.26% # Number of instructions issued per FU type, per thread (Count)
system.cpu.statIssuedInstType_0::SimdReduceAlu            0      0.00%     82.26% # Number of instructions issued per FU type, per thread (Count)
system.cpu.statIssuedInstType_0::SimdReduceCmp            0      0.00%     82.26% # Number of instructions issued per FU type, per thread (Count)
system.cpu.statIssuedInstType_0::SimdFloatReduceAdd            0      0.00%     82.26% # Number of instructions issued per FU type, per thread (Count)
system.cpu.statIssuedInstType_0::SimdFloatReduceCmp            0      0.00%     82.26% # Number of instructions issued per FU type, per thread (Count)
system.cpu.statIssuedInstType_0::SimdAes            0      0.00%     82.26% # Number of instructions issued per FU type, per thread (Count)
system.cpu.statIssuedInstType_0::SimdAesMix            0      0.00%     82.26% # Number of instructions issued per FU type, per thread (Count)
system.cpu.statIssuedInstType_0::SimdSha1Hash            0      0.00%     82.26% # Number of instructions issued per FU type, per thread (Count)
system.cpu.statIssuedInstType_0::SimdSha1Hash2            0      0.00%     82.26% # Number of instructions issued per FU type, per thread (Count)
system.cpu.statIssuedInstType_0::SimdSha256Hash            0      0.00%     82.26% # Number of instructions issued per FU type, per thread (Count)
system.cpu.statIssuedInstType_0::SimdSha256Hash2            0      0.00%     82.26% # Number of instructions issued per FU type, per thread (Count)
system.cpu.statIssuedInstType_0::SimdShaSigma2            0      0.00%     82.26% # Number of instructions issued per FU type, per thread (Count)
system.cpu.statIssuedInstType_0::SimdShaSigma3            0      0.00%     82.26% # Number of instructions issued per FU type, per thread (Count)
system.cpu.statIssuedInstType_0::SimdPredAlu            0      0.00%     82.26% # Number of instructions issued per FU type, per thread (Count)
system.cpu.statIssuedInstType_0::MemRead      2799608     12.11%     94.38% # Number of instructions issued per FU type, per thread (Count)
system.cpu.statIssuedInstType_0::MemWrite      1243063      5.38%     99.75% # Number of instructions issued per FU type, per thread (Count)
system.cpu.statIssuedInstType_0::FloatMemRead        40369      0.17%     99.93% # Number of instructions issued per FU type, per thread (Count)
system.cpu.statIssuedInstType_0::FloatMemWrite        16732      0.07%    100.00% # Number of instructions issued per FU type, per thread (Count)
system.cpu.statIssuedInstType_0::IprAccess            0      0.00%    100.00% # Number of instructions issued per FU type, per thread (Count)
system.cpu.statIssuedInstType_0::InstPrefetch            0      0.00%    100.00% # Number of instructions issued per FU type, per thread (Count)
system.cpu.statIssuedInstType_0::total       23116037                       # Number of instructions issued per FU type, per thread (Count)
system.cpu.issueRate                         2.046402                       # Inst issue rate ((Count/Cycle))
system.cpu.fuBusy                              363184                       # FU busy when requested (Count)
system.cpu.fuBusyRate                        0.015711                       # FU busy rate (busy events/executed inst) ((Count/Count))
system.cpu.intInstQueueReads                 56978507                       # Number of integer instruction queue reads (Count)
system.cpu.intInstQueueWrites                33085537                       # Number of integer instruction queue writes (Count)
system.cpu.intInstQueueWakeupAccesses        22269678                       # Number of integer instruction queue wakeup accesses (Count)
system.cpu.fpInstQueueReads                    284025                       # Number of floating instruction queue reads (Count)
system.cpu.fpInstQueueWrites                   241712                       # Number of floating instruction queue writes (Count)
system.cpu.fpInstQueueWakeupAccesses           134346                       # Number of floating instruction queue wakeup accesses (Count)
system.cpu.vecInstQueueReads                        0                       # Number of vector instruction queue reads (Count)
system.cpu.vecInstQueueWrites                       0                       # Number of vector instruction queue writes (Count)
system.cpu.vecInstQueueWakeupAccesses               0                       # Number of vector instruction queue wakeup accesses (Count)
system.cpu.intAluAccesses                    23252934                       # Number of integer alu accesses (Count)
system.cpu.fpAluAccesses                       142154                       # Number of floating point alu accesses (Count)
system.cpu.vecAluAccesses                           0                       # Number of vector alu accesses (Count)
system.cpu.numInsts                          22652389                       # Number of executed instructions (Count)
system.cpu.numLoadInsts                       2731022                       # Number of load instructions executed (Count)
system.cpu.numSquashedInsts                    463647                       # Number of squashed instructions skipped in execute (Count)
system.cpu.numSwp                                   0                       # Number of swp insts executed (Count)
system.cpu.numNop                                   0                       # Number of nop insts executed (Count)
system.cpu.numRefs                            3950972                       # Number of memory reference insts executed (Count)
system.cpu.numBranches                        2343666                       # Number of branches executed (Count)
system.cpu.numStoreInsts                      1219950                       # Number of stores executed (Count)
system.cpu.numRate                           2.005357                       # Inst execution rate ((Count/Cycle))
system.cpu.timesIdled                           28032                       # Number of times that the entire CPU went into an idle state and unscheduled itself (Count)
system.cpu.idleCycles                          679008                       # Total number of cycles that the CPU has spent unscheduled due to idling (Cycle)
system.cpu.committedInsts                    10000001                       # Number of Instructions Simulated (Count)
system.cpu.committedOps                      18680745                       # Number of Ops (including micro ops) Simulated (Count)
system.cpu.cpi                               1.129594                       # CPI: Cycles Per Instruction ((Cycle/Count))
system.cpu.totalCpi                          1.129594                       # CPI: Total CPI of All Threads ((Cycle/Count))
system.cpu.ipc                               0.885274                       # IPC: Instructions Per Cycle ((Count/Cycle))
system.cpu.totalIpc                          0.885274                       # IPC: Total IPC of All Threads ((Count/Cycle))
system.cpu.intRegfileReads                   33135109                       # Number of integer regfile reads (Count)
system.cpu.intRegfileWrites                  18460173                       # Number of integer regfile writes (Count)
system.cpu.fpRegfileReads                      213125                       # Number of floating regfile reads (Count)
system.cpu.fpRegfileWrites                     124691                       # Number of floating regfile writes (Count)
system.cpu.ccRegfileReads                    13642135                       # number of cc regfile reads (Count)
system.cpu.ccRegfileWrites                    8348784                       # number of cc regfile writes (Count)
system.cpu.miscRegfileReads                   8911462                       # number of misc regfile reads (Count)
system.cpu.miscRegfileWrites                      153                       # number of misc regfile writes (Count)
system.cpu.MemDepUnit__0.insertedLoads        3098639                       # Number of loads inserted to the mem dependence unit. (Count)
system.cpu.MemDepUnit__0.insertedStores       1388441                       # Number of stores inserted to the mem dependence unit. (Count)
system.cpu.MemDepUnit__0.conflictingLoads       218228                       # Number of conflicting loads. (Count)
system.cpu.MemDepUnit__0.conflictingStores       145225                       # Number of conflicting stores. (Count)
system.cpu.MemDepUnit__1.insertedLoads              0                       # Number of loads inserted to the mem dependence unit. (Count)
system.cpu.MemDepUnit__1.insertedStores             0                       # Number of stores inserted to the mem dependence unit. (Count)
system.cpu.MemDepUnit__1.conflictingLoads            0                       # Number of conflicting loads. (Count)
system.cpu.MemDepUnit__1.conflictingStores            0                       # Number of conflicting stores. (Count)
system.cpu.MemDepUnit__2.insertedLoads              0                       # Number of loads inserted to the mem dependence unit. (Count)
system.cpu.MemDepUnit__2.insertedStores             0                       # Number of stores inserted to the mem dependence unit. (Count)
system.cpu.MemDepUnit__2.conflictingLoads            0                       # Number of conflicting loads. (Count)
system.cpu.MemDepUnit__2.conflictingStores            0                       # Number of conflicting stores. (Count)
system.cpu.MemDepUnit__3.insertedLoads              0                       # Number of loads inserted to the mem dependence unit. (Count)
system.cpu.MemDepUnit__3.insertedStores             0                       # Number of stores inserted to the mem dependence unit. (Count)
system.cpu.MemDepUnit__3.conflictingLoads            0                       # Number of conflicting loads. (Count)
system.cpu.MemDepUnit__3.conflictingStores            0                       # Number of conflicting stores. (Count)
system.cpu.branchPred.lookups                 3380179                       # Number of BP lookups (Count)
system.cpu.branchPred.condPredicted           2741540                       # Number of conditional branches predicted (Count)
system.cpu.branchPred.condIncorrect             59296                       # Number of conditional branches incorrect (Count)
system.cpu.branchPred.BTBLookups              1653734                       # Number of BTB lookups (Count)
system.cpu.branchPred.BTBHits                 1630114                       # Number of BTB hits (Count)
system.cpu.branchPred.BTBHitRatio            0.985717                       # BTB Hit Ratio (Ratio)
system.cpu.branchPred.RASUsed                  158932                       # Number of times the RAS was used to get a target. (Count)
system.cpu.branchPred.RASIncorrect                 12                       # Number of incorrect RAS predictions. (Count)
system.cpu.branchPred.indirectLookups           27747                       # Number of indirect predictor lookups. (Count)
system.cpu.branchPred.indirectHits              24789                       # Number of indirect target hits. (Count)
system.cpu.branchPred.indirectMisses             2958                       # Number of indirect misses. (Count)
system.cpu.branchPred.indirectMispredicted          613                       # Number of mispredicted indirect branches. (Count)
system.cpu.commit.commitSquashedInsts         7311761                       # The number of squashed insts skipped by commit (Count)
system.cpu.commit.commitNonSpecStalls             153                       # The number of times commit has been forced to stall to communicate backwards (Count)
system.cpu.commit.branchMispredicts            222152                       # The number of times a branch was mispredicted (Count)
system.cpu.commit.numCommittedDist::samples      9565996                       # Number of insts commited each cycle (Count)
system.cpu.commit.numCommittedDist::mean     1.952828                       # Number of insts commited each cycle (Count)
system.cpu.commit.numCommittedDist::stdev     2.554318                       # Number of insts commited each cycle (Count)
system.cpu.commit.numCommittedDist::underflows            0      0.00%      0.00% # Number of insts commited each cycle (Count)
system.cpu.commit.numCommittedDist::0         4262249     44.56%     44.56% # Number of insts commited each cycle (Count)
system.cpu.commit.numCommittedDist::1         1458531     15.25%     59.80% # Number of insts commited each cycle (Count)
system.cpu.commit.numCommittedDist::2          875189      9.15%     68.95% # Number of insts commited each cycle (Count)
system.cpu.commit.numCommittedDist::3         1082342     11.31%     80.27% # Number of insts commited each cycle (Count)
system.cpu.commit.numCommittedDist::4          357004      3.73%     84.00% # Number of insts commited each cycle (Count)
system.cpu.commit.numCommittedDist::5          312718      3.27%     87.27% # Number of insts commited each cycle (Count)
system.cpu.commit.numCommittedDist::6          185743      1.94%     89.21% # Number of insts commited each cycle (Count)
system.cpu.commit.numCommittedDist::7          139014      1.45%     90.66% # Number of insts commited each cycle (Count)
system.cpu.commit.numCommittedDist::8          893206      9.34%    100.00% # Number of insts commited each cycle (Count)
system.cpu.commit.numCommittedDist::overflows            0      0.00%    100.00% # Number of insts commited each cycle (Count)
system.cpu.commit.numCommittedDist::min_value            0                       # Number of insts commited each cycle (Count)
system.cpu.commit.numCommittedDist::max_value            8                       # Number of insts commited each cycle (Count)
system.cpu.commit.numCommittedDist::total      9565996                       # Number of insts commited each cycle (Count)
system.cpu.commit.instsCommitted             10000001                       # Number of instructions committed (Count)
system.cpu.commit.opsCommitted               18680745                       # Number of ops (including micro ops) committed (Count)
system.cpu.commit.memRefs                     3248831                       # Number of memory references committed (Count)
system.cpu.commit.loads                       2182663                       # Number of loads committed (Count)
system.cpu.commit.amos                              0                       # Number of atomic instructions committed (Count)
system.cpu.commit.membars                           0                       # Number of memory barriers committed (Count)
system.cpu.commit.branches                    2101127                       # Number of branches committed (Count)
system.cpu.commit.vectorInstructions                0                       # Number of committed Vector instructions. (Count)
system.cpu.commit.floating                      90670                       # Number of committed floating point instructions. (Count)
system.cpu.commit.integer                    18521173                       # Number of committed integer instructions. (Count)
system.cpu.commit.functionCalls                 87946                       # Number of function calls committed. (Count)
system.cpu.commit.committedInstType_0::No_OpClass        58291      0.31%      0.31% # Class of committed instruction (Count)
system.cpu.commit.committedInstType_0::IntAlu     15160779     81.16%     81.47% # Class of committed instruction (Count)
system.cpu.commit.committedInstType_0::IntMult         7803      0.04%     81.51% # Class of committed instruction (Count)
system.cpu.commit.committedInstType_0::IntDiv       151975      0.81%     82.32% # Class of committed instruction (Count)
system.cpu.commit.committedInstType_0::FloatAdd        11510      0.06%     82.39% # Class of committed instruction (Count)
system.cpu.commit.committedInstType_0::FloatCmp            0      0.00%     82.39% # Class of committed instruction (Count)
system.cpu.commit.committedInstType_0::FloatCvt          272      0.00%     82.39% # Class of committed instruction (Count)
system.cpu.commit.committedInstType_0::FloatMult            0      0.00%     82.39% # Class of committed instruction (Count)
system.cpu.commit.committedInstType_0::FloatMultAcc            0      0.00%     82.39% # Class of committed instruction (Count)
system.cpu.commit.committedInstType_0::FloatDiv            0      0.00%     82.39% # Class of committed instruction (Count)
system.cpu.commit.committedInstType_0::FloatMisc            0      0.00%     82.39% # Class of committed instruction (Count)
system.cpu.commit.committedInstType_0::FloatSqrt            0      0.00%     82.39% # Class of committed instruction (Count)
system.cpu.commit.committedInstType_0::SimdAdd         1178      0.01%     82.39% # Class of committed instruction (Count)
system.cpu.commit.committedInstType_0::SimdAddAcc            0      0.00%     82.39% # Class of committed instruction (Count)
system.cpu.commit.committedInstType_0::SimdAlu        12651      0.07%     82.46% # Class of committed instruction (Count)
system.cpu.commit.committedInstType_0::SimdCmp            0      0.00%     82.46% # Class of committed instruction (Count)
system.cpu.commit.committedInstType_0::SimdCvt        13812      0.07%     82.54% # Class of committed instruction (Count)
system.cpu.commit.committedInstType_0::SimdMisc        12991      0.07%     82.61% # Class of committed instruction (Count)
system.cpu.commit.committedInstType_0::SimdMult            0      0.00%     82.61% # Class of committed instruction (Count)
system.cpu.commit.committedInstType_0::SimdMultAcc            0      0.00%     82.61% # Class of committed instruction (Count)
system.cpu.commit.committedInstType_0::SimdShift          582      0.00%     82.61% # Class of committed instruction (Count)
system.cpu.commit.committedInstType_0::SimdShiftAcc            0      0.00%     82.61% # Class of committed instruction (Count)
system.cpu.commit.committedInstType_0::SimdDiv            0      0.00%     82.61% # Class of committed instruction (Count)
system.cpu.commit.committedInstType_0::SimdSqrt            0      0.00%     82.61% # Class of committed instruction (Count)
system.cpu.commit.committedInstType_0::SimdFloatAdd           21      0.00%     82.61% # Class of committed instruction (Count)
system.cpu.commit.committedInstType_0::SimdFloatAlu            0      0.00%     82.61% # Class of committed instruction (Count)
system.cpu.commit.committedInstType_0::SimdFloatCmp            0      0.00%     82.61% # Class of committed instruction (Count)
system.cpu.commit.committedInstType_0::SimdFloatCvt            4      0.00%     82.61% # Class of committed instruction (Count)
system.cpu.commit.committedInstType_0::SimdFloatDiv            9      0.00%     82.61% # Class of committed instruction (Count)
system.cpu.commit.committedInstType_0::SimdFloatMisc            0      0.00%     82.61% # Class of committed instruction (Count)
system.cpu.commit.committedInstType_0::SimdFloatMult           36      0.00%     82.61% # Class of committed instruction (Count)
system.cpu.commit.committedInstType_0::SimdFloatMultAcc            0      0.00%     82.61% # Class of committed instruction (Count)
system.cpu.commit.committedInstType_0::SimdFloatSqrt            0      0.00%     82.61% # Class of committed instruction (Count)
system.cpu.commit.committedInstType_0::SimdReduceAdd            0      0.00%     82.61% # Class of committed instruction (Count)
system.cpu.commit.committedInstType_0::SimdReduceAlu            0      0.00%     82.61% # Class of committed instruction (Count)
system.cpu.commit.committedInstType_0::SimdReduceCmp            0      0.00%     82.61% # Class of committed instruction (Count)
system.cpu.commit.committedInstType_0::SimdFloatReduceAdd            0      0.00%     82.61% # Class of committed instruction (Count)
system.cpu.commit.committedInstType_0::SimdFloatReduceCmp            0      0.00%     82.61% # Class of committed instruction (Count)
system.cpu.commit.committedInstType_0::SimdAes            0      0.00%     82.61% # Class of committed instruction (Count)
system.cpu.commit.committedInstType_0::SimdAesMix            0      0.00%     82.61% # Class of committed instruction (Count)
system.cpu.commit.committedInstType_0::SimdSha1Hash            0      0.00%     82.61% # Class of committed instruction (Count)
system.cpu.commit.committedInstType_0::SimdSha1Hash2            0      0.00%     82.61% # Class of committed instruction (Count)
system.cpu.commit.committedInstType_0::SimdSha256Hash            0      0.00%     82.61% # Class of committed instruction (Count)
system.cpu.commit.committedInstType_0::SimdSha256Hash2            0      0.00%     82.61% # Class of committed instruction (Count)
system.cpu.commit.committedInstType_0::SimdShaSigma2            0      0.00%     82.61% # Class of committed instruction (Count)
system.cpu.commit.committedInstType_0::SimdShaSigma3            0      0.00%     82.61% # Class of committed instruction (Count)
system.cpu.commit.committedInstType_0::SimdPredAlu            0      0.00%     82.61% # Class of committed instruction (Count)
system.cpu.commit.committedInstType_0::MemRead      2157043     11.55%     94.16% # Class of committed instruction (Count)
system.cpu.commit.committedInstType_0::MemWrite      1054329      5.64%     99.80% # Class of committed instruction (Count)
system.cpu.commit.committedInstType_0::FloatMemRead        25620      0.14%     99.94% # Class of committed instruction (Count)
system.cpu.commit.committedInstType_0::FloatMemWrite        11839      0.06%    100.00% # Class of committed instruction (Count)
system.cpu.commit.committedInstType_0::IprAccess            0      0.00%    100.00% # Class of committed instruction (Count)
system.cpu.commit.committedInstType_0::InstPrefetch            0      0.00%    100.00% # Class of committed instruction (Count)
system.cpu.commit.committedInstType_0::total     18680745                       # Class of committed instruction (Count)
system.cpu.commit.commitEligibleSamples        893206                       # number cycles where commit BW limit reached (Cycle)
system.cpu.dcache.demandHits::cpu.data        3465329                       # number of demand (read+write) hits (Count)
system.cpu.dcache.demandHits::total           3465329                       # number of demand (read+write) hits (Count)
system.cpu.dcache.overallHits::cpu.data       3465329                       # number of overall hits (Count)
system.cpu.dcache.overallHits::total          3465329                       # number of overall hits (Count)
system.cpu.dcache.demandMisses::cpu.data        59245                       # number of demand (read+write) misses (Count)
system.cpu.dcache.demandMisses::total           59245                       # number of demand (read+write) misses (Count)
system.cpu.dcache.overallMisses::cpu.data        59245                       # number of overall misses (Count)
system.cpu.dcache.overallMisses::total          59245                       # number of overall misses (Count)
system.cpu.dcache.demandMissLatency::cpu.data   3726106973                       # number of demand (read+write) miss ticks (Tick)
system.cpu.dcache.demandMissLatency::total   3726106973                       # number of demand (read+write) miss ticks (Tick)
system.cpu.dcache.overallMissLatency::cpu.data   3726106973                       # number of overall miss ticks (Tick)
system.cpu.dcache.overallMissLatency::total   3726106973                       # number of overall miss ticks (Tick)
system.cpu.dcache.demandAccesses::cpu.data      3524574                       # number of demand (read+write) accesses (Count)
system.cpu.dcache.demandAccesses::total       3524574                       # number of demand (read+write) accesses (Count)
system.cpu.dcache.overallAccesses::cpu.data      3524574                       # number of overall (read+write) accesses (Count)
system.cpu.dcache.overallAccesses::total      3524574                       # number of overall (read+write) accesses (Count)
system.cpu.dcache.demandMissRate::cpu.data     0.016809                       # miss rate for demand accesses (Ratio)
system.cpu.dcache.demandMissRate::total      0.016809                       # miss rate for demand accesses (Ratio)
system.cpu.dcache.overallMissRate::cpu.data     0.016809                       # miss rate for overall accesses (Ratio)
system.cpu.dcache.overallMissRate::total     0.016809                       # miss rate for overall accesses (Ratio)
system.cpu.dcache.demandAvgMissLatency::cpu.data 62893.188843                       # average overall miss latency in ticks ((Tick/Count))
system.cpu.dcache.demandAvgMissLatency::total 62893.188843                       # average overall miss latency in ticks ((Tick/Count))
system.cpu.dcache.overallAvgMissLatency::cpu.data 62893.188843                       # average overall miss latency ((Tick/Count))
system.cpu.dcache.overallAvgMissLatency::total 62893.188843                       # average overall miss latency ((Tick/Count))
system.cpu.dcache.blockedCycles::no_mshrs        24690                       # number of cycles access was blocked (Cycle)
system.cpu.dcache.blockedCycles::no_targets          434                       # number of cycles access was blocked (Cycle)
system.cpu.dcache.blockedCauses::no_mshrs          551                       # number of times access was blocked (Count)
system.cpu.dcache.blockedCauses::no_targets            7                       # number of times access was blocked (Count)
system.cpu.dcache.avgBlocked::no_mshrs      44.809437                       # average number of cycles each access was blocked ((Cycle/Count))
system.cpu.dcache.avgBlocked::no_targets           62                       # average number of cycles each access was blocked ((Cycle/Count))
system.cpu.dcache.writebacks::writebacks         3096                       # number of writebacks (Count)
system.cpu.dcache.writebacks::total              3096                       # number of writebacks (Count)
system.cpu.dcache.demandMshrHits::cpu.data        38191                       # number of demand (read+write) MSHR hits (Count)
system.cpu.dcache.demandMshrHits::total         38191                       # number of demand (read+write) MSHR hits (Count)
system.cpu.dcache.overallMshrHits::cpu.data        38191                       # number of overall MSHR hits (Count)
system.cpu.dcache.overallMshrHits::total        38191                       # number of overall MSHR hits (Count)
system.cpu.dcache.demandMshrMisses::cpu.data        21054                       # number of demand (read+write) MSHR misses (Count)
system.cpu.dcache.demandMshrMisses::total        21054                       # number of demand (read+write) MSHR misses (Count)
system.cpu.dcache.overallMshrMisses::cpu.data        21054                       # number of overall MSHR misses (Count)
system.cpu.dcache.overallMshrMisses::total        21054                       # number of overall MSHR misses (Count)
system.cpu.dcache.demandMshrMissLatency::cpu.data   1443732473                       # number of demand (read+write) MSHR miss ticks (Tick)
system.cpu.dcache.demandMshrMissLatency::total   1443732473                       # number of demand (read+write) MSHR miss ticks (Tick)
system.cpu.dcache.overallMshrMissLatency::cpu.data   1443732473                       # number of overall MSHR miss ticks (Tick)
system.cpu.dcache.overallMshrMissLatency::total   1443732473                       # number of overall MSHR miss ticks (Tick)
system.cpu.dcache.demandMshrMissRate::cpu.data     0.005973                       # mshr miss ratio for demand accesses (Ratio)
system.cpu.dcache.demandMshrMissRate::total     0.005973                       # mshr miss ratio for demand accesses (Ratio)
system.cpu.dcache.overallMshrMissRate::cpu.data     0.005973                       # mshr miss ratio for overall accesses (Ratio)
system.cpu.dcache.overallMshrMissRate::total     0.005973                       # mshr miss ratio for overall accesses (Ratio)
system.cpu.dcache.demandAvgMshrMissLatency::cpu.data 68572.835233                       # average overall mshr miss latency ((Tick/Count))
system.cpu.dcache.demandAvgMshrMissLatency::total 68572.835233                       # average overall mshr miss latency ((Tick/Count))
system.cpu.dcache.overallAvgMshrMissLatency::cpu.data 68572.835233                       # average overall mshr miss latency ((Tick/Count))
system.cpu.dcache.overallAvgMshrMissLatency::total 68572.835233                       # average overall mshr miss latency ((Tick/Count))
system.cpu.dcache.replacements                  20025                       # number of replacements (Count)
system.cpu.dcache.ReadReq.hits::cpu.data      2402658                       # number of ReadReq hits (Count)
system.cpu.dcache.ReadReq.hits::total         2402658                       # number of ReadReq hits (Count)
system.cpu.dcache.ReadReq.misses::cpu.data        55740                       # number of ReadReq misses (Count)
system.cpu.dcache.ReadReq.misses::total         55740                       # number of ReadReq misses (Count)
system.cpu.dcache.ReadReq.missLatency::cpu.data   3501589000                       # number of ReadReq miss ticks (Tick)
system.cpu.dcache.ReadReq.missLatency::total   3501589000                       # number of ReadReq miss ticks (Tick)
system.cpu.dcache.ReadReq.accesses::cpu.data      2458398                       # number of ReadReq accesses(hits+misses) (Count)
system.cpu.dcache.ReadReq.accesses::total      2458398                       # number of ReadReq accesses(hits+misses) (Count)
system.cpu.dcache.ReadReq.missRate::cpu.data     0.022673                       # miss rate for ReadReq accesses (Ratio)
system.cpu.dcache.ReadReq.missRate::total     0.022673                       # miss rate for ReadReq accesses (Ratio)
system.cpu.dcache.ReadReq.avgMissLatency::cpu.data 62820.039469                       # average ReadReq miss latency ((Tick/Count))
system.cpu.dcache.ReadReq.avgMissLatency::total 62820.039469                       # average ReadReq miss latency ((Tick/Count))
system.cpu.dcache.ReadReq.mshrHits::cpu.data        38146                       # number of ReadReq MSHR hits (Count)
system.cpu.dcache.ReadReq.mshrHits::total        38146                       # number of ReadReq MSHR hits (Count)
system.cpu.dcache.ReadReq.mshrMisses::cpu.data        17594                       # number of ReadReq MSHR misses (Count)
system.cpu.dcache.ReadReq.mshrMisses::total        17594                       # number of ReadReq MSHR misses (Count)
system.cpu.dcache.ReadReq.mshrMissLatency::cpu.data   1224129000                       # number of ReadReq MSHR miss ticks (Tick)
system.cpu.dcache.ReadReq.mshrMissLatency::total   1224129000                       # number of ReadReq MSHR miss ticks (Tick)
system.cpu.dcache.ReadReq.mshrMissRate::cpu.data     0.007157                       # mshr miss rate for ReadReq accesses (Ratio)
system.cpu.dcache.ReadReq.mshrMissRate::total     0.007157                       # mshr miss rate for ReadReq accesses (Ratio)
system.cpu.dcache.ReadReq.avgMshrMissLatency::cpu.data 69576.503353                       # average ReadReq mshr miss latency ((Tick/Count))
system.cpu.dcache.ReadReq.avgMshrMissLatency::total 69576.503353                       # average ReadReq mshr miss latency ((Tick/Count))
system.cpu.dcache.WriteReq.hits::cpu.data      1062671                       # number of WriteReq hits (Count)
system.cpu.dcache.WriteReq.hits::total        1062671                       # number of WriteReq hits (Count)
system.cpu.dcache.WriteReq.misses::cpu.data         3505                       # number of WriteReq misses (Count)
system.cpu.dcache.WriteReq.misses::total         3505                       # number of WriteReq misses (Count)
system.cpu.dcache.WriteReq.missLatency::cpu.data    224517973                       # number of WriteReq miss ticks (Tick)
system.cpu.dcache.WriteReq.missLatency::total    224517973                       # number of WriteReq miss ticks (Tick)
system.cpu.dcache.WriteReq.accesses::cpu.data      1066176                       # number of WriteReq accesses(hits+misses) (Count)
system.cpu.dcache.WriteReq.accesses::total      1066176                       # number of WriteReq accesses(hits+misses) (Count)
system.cpu.dcache.WriteReq.missRate::cpu.data     0.003287                       # miss rate for WriteReq accesses (Ratio)
system.cpu.dcache.WriteReq.missRate::total     0.003287                       # miss rate for WriteReq accesses (Ratio)
system.cpu.dcache.WriteReq.avgMissLatency::cpu.data 64056.483024                       # average WriteReq miss latency ((Tick/Count))
system.cpu.dcache.WriteReq.avgMissLatency::total 64056.483024                       # average WriteReq miss latency ((Tick/Count))
system.cpu.dcache.WriteReq.mshrHits::cpu.data           45                       # number of WriteReq MSHR hits (Count)
system.cpu.dcache.WriteReq.mshrHits::total           45                       # number of WriteReq MSHR hits (Count)
system.cpu.dcache.WriteReq.mshrMisses::cpu.data         3460                       # number of WriteReq MSHR misses (Count)
system.cpu.dcache.WriteReq.mshrMisses::total         3460                       # number of WriteReq MSHR misses (Count)
system.cpu.dcache.WriteReq.mshrMissLatency::cpu.data    219603473                       # number of WriteReq MSHR miss ticks (Tick)
system.cpu.dcache.WriteReq.mshrMissLatency::total    219603473                       # number of WriteReq MSHR miss ticks (Tick)
system.cpu.dcache.WriteReq.mshrMissRate::cpu.data     0.003245                       # mshr miss rate for WriteReq accesses (Ratio)
system.cpu.dcache.WriteReq.mshrMissRate::total     0.003245                       # mshr miss rate for WriteReq accesses (Ratio)
system.cpu.dcache.WriteReq.avgMshrMissLatency::cpu.data 63469.211850                       # average WriteReq mshr miss latency ((Tick/Count))
system.cpu.dcache.WriteReq.avgMshrMissLatency::total 63469.211850                       # average WriteReq mshr miss latency ((Tick/Count))
system.cpu.dcache.power_state.pwrStateResidencyTicks::UNDEFINED   5647969000                       # Cumulative time (in ticks) in various power states (Tick)
system.cpu.dcache.tags.tagsInUse          1013.509577                       # Average ticks per tags in use ((Tick/Count))
system.cpu.dcache.tags.totalRefs              3486383                       # Total number of references to valid blocks. (Count)
system.cpu.dcache.tags.sampledRefs              21049                       # Sample count of references to valid blocks. (Count)
system.cpu.dcache.tags.avgRefs             165.631764                       # Average number of references to valid blocks. ((Count/Count))
system.cpu.dcache.tags.warmupTick              148000                       # The tick when the warmup percentage was hit. (Tick)
system.cpu.dcache.tags.occupancies::cpu.data  1013.509577                       # Average occupied blocks per tick, per requestor ((Count/Tick))
system.cpu.dcache.tags.avgOccs::cpu.data     0.989755                       # Average percentage of cache occupancy ((Ratio/Tick))
system.cpu.dcache.tags.avgOccs::total        0.989755                       # Average percentage of cache occupancy ((Ratio/Tick))
system.cpu.dcache.tags.occupanciesTaskId::1024         1024                       # Occupied blocks per task id (Count)
system.cpu.dcache.tags.ageTaskId_1024::0            6                       # Occupied blocks per task id, per block age (Count)
system.cpu.dcache.tags.ageTaskId_1024::1           37                       # Occupied blocks per task id, per block age (Count)
system.cpu.dcache.tags.ageTaskId_1024::2          312                       # Occupied blocks per task id, per block age (Count)
system.cpu.dcache.tags.ageTaskId_1024::3          669                       # Occupied blocks per task id, per block age (Count)
system.cpu.dcache.tags.ratioOccsTaskId::1024            1                       # Ratio of occupied blocks and all blocks, per task id (Ratio)
system.cpu.dcache.tags.tagAccesses            7070197                       # Number of tag accesses (Count)
system.cpu.dcache.tags.dataAccesses           7070197                       # Number of data accesses (Count)
system.cpu.dcache.tags.power_state.pwrStateResidencyTicks::UNDEFINED   5647969000                       # Cumulative time (in ticks) in various power states (Tick)
system.cpu.decode.idleCycles                  2982516                       # Number of cycles decode is idle (Cycle)
system.cpu.decode.blockedCycles               2936252                       # Number of cycles decode is blocked (Cycle)
system.cpu.decode.runCycles                   4025344                       # Number of cycles decode is running (Cycle)
system.cpu.decode.unblockCycles                449776                       # Number of cycles decode is unblocking (Cycle)
system.cpu.decode.squashCycles                 223043                       # Number of cycles decode is squashing (Cycle)
system.cpu.decode.branchResolved              1542085                       # Number of times decode resolved a branch (Count)
system.cpu.decode.branchMispred                  1217                       # Number of times decode detected a branch misprediction (Count)
system.cpu.decode.decodedInsts               28364458                       # Number of instructions handled by decode (Count)
system.cpu.decode.squashedInsts                  5308                       # Number of squashed instructions handled by decode (Count)
system.cpu.dtb_walker_cache.blockedCycles::no_mshrs            0                       # number of cycles access was blocked (Cycle)
system.cpu.dtb_walker_cache.blockedCycles::no_targets            0                       # number of cycles access was blocked (Cycle)
system.cpu.dtb_walker_cache.blockedCauses::no_mshrs            0                       # number of times access was blocked (Count)
system.cpu.dtb_walker_cache.blockedCauses::no_targets            0                       # number of times access was blocked (Count)
system.cpu.dtb_walker_cache.avgBlocked::no_mshrs          nan                       # average number of cycles each access was blocked ((Cycle/Count))
system.cpu.dtb_walker_cache.avgBlocked::no_targets          nan                       # average number of cycles each access was blocked ((Cycle/Count))
system.cpu.dtb_walker_cache.replacements            0                       # number of replacements (Count)
system.cpu.dtb_walker_cache.power_state.pwrStateResidencyTicks::UNDEFINED   5647969000                       # Cumulative time (in ticks) in various power states (Tick)
system.cpu.dtb_walker_cache.tags.tagsInUse            0                       # Average ticks per tags in use ((Tick/Count))
system.cpu.dtb_walker_cache.tags.totalRefs            0                       # Total number of references to valid blocks. (Count)
system.cpu.dtb_walker_cache.tags.sampledRefs            0                       # Sample count of references to valid blocks. (Count)
system.cpu.dtb_walker_cache.tags.avgRefs          nan                       # Average number of references to valid blocks. ((Count/Count))
system.cpu.dtb_walker_cache.tags.warmupTick            0                       # The tick when the warmup percentage was hit. (Tick)
system.cpu.dtb_walker_cache.tags.tagAccesses            0                       # Number of tag accesses (Count)
system.cpu.dtb_walker_cache.tags.dataAccesses            0                       # Number of data accesses (Count)
system.cpu.dtb_walker_cache.tags.power_state.pwrStateResidencyTicks::UNDEFINED   5647969000                       # Cumulative time (in ticks) in various power states (Tick)
system.cpu.fetch.icacheStallCycles            3311112                       # Number of cycles fetch is stalled on an Icache miss (Cycle)
system.cpu.fetch.insts                       15669609                       # Number of instructions fetch has processed (Count)
system.cpu.fetch.branches                     3380179                       # Number of branches that fetch encountered (Count)
system.cpu.fetch.predictedBranches            1813835                       # Number of branches that fetch has predicted taken (Count)
system.cpu.fetch.cycles                       7076494                       # Number of cycles fetch has run and was not squashing or blocked (Cycle)
system.cpu.fetch.squashCycles                  448406                       # Number of cycles fetch has spent squashing (Cycle)
system.cpu.fetch.miscStallCycles                  603                       # Number of cycles fetch has spent waiting on interrupts, or bad addresses, or out of MSHRs (Cycle)
system.cpu.fetch.pendingTrapStallCycles          4519                       # Number of stall cycles due to pending traps (Cycle)
system.cpu.fetch.cacheLines                   2406071                       # Number of cache lines fetched (Count)
system.cpu.fetch.icacheSquashes                 79769                       # Number of outstanding Icache misses that were squashed (Count)
system.cpu.fetch.nisnDist::samples           10616931                       # Number of instructions fetched each cycle (Total) (Count)
system.cpu.fetch.nisnDist::mean              2.803694                       # Number of instructions fetched each cycle (Total) (Count)
system.cpu.fetch.nisnDist::stdev             3.401042                       # Number of instructions fetched each cycle (Total) (Count)
system.cpu.fetch.nisnDist::underflows               0      0.00%      0.00% # Number of instructions fetched each cycle (Total) (Count)
system.cpu.fetch.nisnDist::0                  5602148     52.77%     52.77% # Number of instructions fetched each cycle (Total) (Count)
system.cpu.fetch.nisnDist::1                   301408      2.84%     55.61% # Number of instructions fetched each cycle (Total) (Count)
system.cpu.fetch.nisnDist::2                   348576      3.28%     58.89% # Number of instructions fetched each cycle (Total) (Count)
system.cpu.fetch.nisnDist::3                   391786      3.69%     62.58% # Number of instructions fetched each cycle (Total) (Count)
system.cpu.fetch.nisnDist::4                   567837      5.35%     67.93% # Number of instructions fetched each cycle (Total) (Count)
system.cpu.fetch.nisnDist::5                   377092      3.55%     71.48% # Number of instructions fetched each cycle (Total) (Count)
system.cpu.fetch.nisnDist::6                   281630      2.65%     74.13% # Number of instructions fetched each cycle (Total) (Count)
system.cpu.fetch.nisnDist::7                   225516      2.12%     76.26% # Number of instructions fetched each cycle (Total) (Count)
system.cpu.fetch.nisnDist::8                  2520938     23.74%    100.00% # Number of instructions fetched each cycle (Total) (Count)
system.cpu.fetch.nisnDist::overflows                0      0.00%    100.00% # Number of instructions fetched each cycle (Total) (Count)
system.cpu.fetch.nisnDist::min_value                0                       # Number of instructions fetched each cycle (Total) (Count)
system.cpu.fetch.nisnDist::max_value                8                       # Number of instructions fetched each cycle (Total) (Count)
system.cpu.fetch.nisnDist::total             10616931                       # Number of instructions fetched each cycle (Total) (Count)
system.cpu.fetch.branchRate                  0.299238                       # Number of branch fetches per cycle (Ratio)
system.cpu.fetch.rate                        1.387190                       # Number of inst fetches per cycle ((Count/Cycle))
system.cpu.icache.demandHits::cpu.inst        2356399                       # number of demand (read+write) hits (Count)
system.cpu.icache.demandHits::total           2356399                       # number of demand (read+write) hits (Count)
system.cpu.icache.overallHits::cpu.inst       2356399                       # number of overall hits (Count)
system.cpu.icache.overallHits::total          2356399                       # number of overall hits (Count)
system.cpu.icache.demandMisses::cpu.inst        49672                       # number of demand (read+write) misses (Count)
system.cpu.icache.demandMisses::total           49672                       # number of demand (read+write) misses (Count)
system.cpu.icache.overallMisses::cpu.inst        49672                       # number of overall misses (Count)
system.cpu.icache.overallMisses::total          49672                       # number of overall misses (Count)
system.cpu.icache.demandMissLatency::cpu.inst   1163680500                       # number of demand (read+write) miss ticks (Tick)
system.cpu.icache.demandMissLatency::total   1163680500                       # number of demand (read+write) miss ticks (Tick)
system.cpu.icache.overallMissLatency::cpu.inst   1163680500                       # number of overall miss ticks (Tick)
system.cpu.icache.overallMissLatency::total   1163680500                       # number of overall miss ticks (Tick)
system.cpu.icache.demandAccesses::cpu.inst      2406071                       # number of demand (read+write) accesses (Count)
system.cpu.icache.demandAccesses::total       2406071                       # number of demand (read+write) accesses (Count)
system.cpu.icache.overallAccesses::cpu.inst      2406071                       # number of overall (read+write) accesses (Count)
system.cpu.icache.overallAccesses::total      2406071                       # number of overall (read+write) accesses (Count)
system.cpu.icache.demandMissRate::cpu.inst     0.020644                       # miss rate for demand accesses (Ratio)
system.cpu.icache.demandMissRate::total      0.020644                       # miss rate for demand accesses (Ratio)
system.cpu.icache.overallMissRate::cpu.inst     0.020644                       # miss rate for overall accesses (Ratio)
system.cpu.icache.overallMissRate::total     0.020644                       # miss rate for overall accesses (Ratio)
system.cpu.icache.demandAvgMissLatency::cpu.inst 23427.293042                       # average overall miss latency in ticks ((Tick/Count))
system.cpu.icache.demandAvgMissLatency::total 23427.293042                       # average overall miss latency in ticks ((Tick/Count))
system.cpu.icache.overallAvgMissLatency::cpu.inst 23427.293042                       # average overall miss latency ((Tick/Count))
system.cpu.icache.overallAvgMissLatency::total 23427.293042                       # average overall miss latency ((Tick/Count))
system.cpu.icache.blockedCycles::no_mshrs            0                       # number of cycles access was blocked (Cycle)
system.cpu.icache.blockedCycles::no_targets            0                       # number of cycles access was blocked (Cycle)
system.cpu.icache.blockedCauses::no_mshrs            0                       # number of times access was blocked (Count)
system.cpu.icache.blockedCauses::no_targets            0                       # number of times access was blocked (Count)
system.cpu.icache.avgBlocked::no_mshrs            nan                       # average number of cycles each access was blocked ((Cycle/Count))
system.cpu.icache.avgBlocked::no_targets          nan                       # average number of cycles each access was blocked ((Cycle/Count))
system.cpu.icache.writebacks::writebacks        35289                       # number of writebacks (Count)
system.cpu.icache.writebacks::total             35289                       # number of writebacks (Count)
system.cpu.icache.demandMshrHits::cpu.inst        13871                       # number of demand (read+write) MSHR hits (Count)
system.cpu.icache.demandMshrHits::total         13871                       # number of demand (read+write) MSHR hits (Count)
system.cpu.icache.overallMshrHits::cpu.inst        13871                       # number of overall MSHR hits (Count)
system.cpu.icache.overallMshrHits::total        13871                       # number of overall MSHR hits (Count)
system.cpu.icache.demandMshrMisses::cpu.inst        35801                       # number of demand (read+write) MSHR misses (Count)
system.cpu.icache.demandMshrMisses::total        35801                       # number of demand (read+write) MSHR misses (Count)
system.cpu.icache.overallMshrMisses::cpu.inst        35801                       # number of overall MSHR misses (Count)
system.cpu.icache.overallMshrMisses::total        35801                       # number of overall MSHR misses (Count)
system.cpu.icache.demandMshrMissLatency::cpu.inst    883182500                       # number of demand (read+write) MSHR miss ticks (Tick)
system.cpu.icache.demandMshrMissLatency::total    883182500                       # number of demand (read+write) MSHR miss ticks (Tick)
system.cpu.icache.overallMshrMissLatency::cpu.inst    883182500                       # number of overall MSHR miss ticks (Tick)
system.cpu.icache.overallMshrMissLatency::total    883182500                       # number of overall MSHR miss ticks (Tick)
system.cpu.icache.demandMshrMissRate::cpu.inst     0.014879                       # mshr miss ratio for demand accesses (Ratio)
system.cpu.icache.demandMshrMissRate::total     0.014879                       # mshr miss ratio for demand accesses (Ratio)
system.cpu.icache.overallMshrMissRate::cpu.inst     0.014879                       # mshr miss ratio for overall accesses (Ratio)
system.cpu.icache.overallMshrMissRate::total     0.014879                       # mshr miss ratio for overall accesses (Ratio)
system.cpu.icache.demandAvgMshrMissLatency::cpu.inst 24669.213150                       # average overall mshr miss latency ((Tick/Count))
system.cpu.icache.demandAvgMshrMissLatency::total 24669.213150                       # average overall mshr miss latency ((Tick/Count))
system.cpu.icache.overallAvgMshrMissLatency::cpu.inst 24669.213150                       # average overall mshr miss latency ((Tick/Count))
system.cpu.icache.overallAvgMshrMissLatency::total 24669.213150                       # average overall mshr miss latency ((Tick/Count))
system.cpu.icache.replacements                  35289                       # number of replacements (Count)
system.cpu.icache.ReadReq.hits::cpu.inst      2356399                       # number of ReadReq hits (Count)
system.cpu.icache.ReadReq.hits::total         2356399                       # number of ReadReq hits (Count)
system.cpu.icache.ReadReq.misses::cpu.inst        49672                       # number of ReadReq misses (Count)
system.cpu.icache.ReadReq.misses::total         49672                       # number of ReadReq misses (Count)
system.cpu.icache.ReadReq.missLatency::cpu.inst   1163680500                       # number of ReadReq miss ticks (Tick)
system.cpu.icache.ReadReq.missLatency::total   1163680500                       # number of ReadReq miss ticks (Tick)
system.cpu.icache.ReadReq.accesses::cpu.inst      2406071                       # number of ReadReq accesses(hits+misses) (Count)
system.cpu.icache.ReadReq.accesses::total      2406071                       # number of ReadReq accesses(hits+misses) (Count)
system.cpu.icache.ReadReq.missRate::cpu.inst     0.020644                       # miss rate for ReadReq accesses (Ratio)
system.cpu.icache.ReadReq.missRate::total     0.020644                       # miss rate for ReadReq accesses (Ratio)
system.cpu.icache.ReadReq.avgMissLatency::cpu.inst 23427.293042                       # average ReadReq miss latency ((Tick/Count))
system.cpu.icache.ReadReq.avgMissLatency::total 23427.293042                       # average ReadReq miss latency ((Tick/Count))
system.cpu.icache.ReadReq.mshrHits::cpu.inst        13871                       # number of ReadReq MSHR hits (Count)
system.cpu.icache.ReadReq.mshrHits::total        13871                       # number of ReadReq MSHR hits (Count)
system.cpu.icache.ReadReq.mshrMisses::cpu.inst        35801                       # number of ReadReq MSHR misses (Count)
system.cpu.icache.ReadReq.mshrMisses::total        35801                       # number of ReadReq MSHR misses (Count)
system.cpu.icache.ReadReq.mshrMissLatency::cpu.inst    883182500                       # number of ReadReq MSHR miss ticks (Tick)
system.cpu.icache.ReadReq.mshrMissLatency::total    883182500                       # number of ReadReq MSHR miss ticks (Tick)
system.cpu.icache.ReadReq.mshrMissRate::cpu.inst     0.014879                       # mshr miss rate for ReadReq accesses (Ratio)
system.cpu.icache.ReadReq.mshrMissRate::total     0.014879                       # mshr miss rate for ReadReq accesses (Ratio)
system.cpu.icache.ReadReq.avgMshrMissLatency::cpu.inst 24669.213150                       # average ReadReq mshr miss latency ((Tick/Count))
system.cpu.icache.ReadReq.avgMshrMissLatency::total 24669.213150                       # average ReadReq mshr miss latency ((Tick/Count))
system.cpu.icache.power_state.pwrStateResidencyTicks::UNDEFINED   5647969000                       # Cumulative time (in ticks) in various power states (Tick)
system.cpu.icache.tags.tagsInUse           488.803793                       # Average ticks per tags in use ((Tick/Count))
system.cpu.icache.tags.totalRefs              2392199                       # Total number of references to valid blocks. (Count)
system.cpu.icache.tags.sampledRefs              35800                       # Sample count of references to valid blocks. (Count)
system.cpu.icache.tags.avgRefs              66.821201                       # Average number of references to valid blocks. ((Count/Count))
system.cpu.icache.tags.warmupTick               77000                       # The tick when the warmup percentage was hit. (Tick)
system.cpu.icache.tags.occupancies::cpu.inst   488.803793                       # Average occupied blocks per tick, per requestor ((Count/Tick))
system.cpu.icache.tags.avgOccs::cpu.inst     0.954695                       # Average percentage of cache occupancy ((Ratio/Tick))
system.cpu.icache.tags.avgOccs::total        0.954695                       # Average percentage of cache occupancy ((Ratio/Tick))
system.cpu.icache.tags.occupanciesTaskId::1024          506                       # Occupied blocks per task id (Count)
system.cpu.icache.tags.ageTaskId_1024::0            4                       # Occupied blocks per task id, per block age (Count)
system.cpu.icache.tags.ageTaskId_1024::2            9                       # Occupied blocks per task id, per block age (Count)
system.cpu.icache.tags.ageTaskId_1024::3          493                       # Occupied blocks per task id, per block age (Count)
system.cpu.icache.tags.ratioOccsTaskId::1024     0.988281                       # Ratio of occupied blocks and all blocks, per task id (Ratio)
system.cpu.icache.tags.tagAccesses            4847942                       # Number of tag accesses (Count)
system.cpu.icache.tags.dataAccesses           4847942                       # Number of data accesses (Count)
system.cpu.icache.tags.power_state.pwrStateResidencyTicks::UNDEFINED   5647969000                       # Cumulative time (in ticks) in various power states (Tick)
system.cpu.iew.idleCycles                           0                       # Number of cycles IEW is idle (Cycle)
system.cpu.iew.squashCycles                    223043                       # Number of cycles IEW is squashing (Cycle)
system.cpu.iew.blockCycles                    1682253                       # Number of cycles IEW is blocking (Cycle)
system.cpu.iew.unblockCycles                    68617                       # Number of cycles IEW is unblocking (Cycle)
system.cpu.iew.dispatchedInsts               26003747                       # Number of instructions dispatched to IQ (Count)
system.cpu.iew.dispSquashedInsts                 9240                       # Number of squashed instructions skipped by dispatch (Count)
system.cpu.iew.dispLoadInsts                  3098639                       # Number of dispatched load instructions (Count)
system.cpu.iew.dispStoreInsts                 1388441                       # Number of dispatched store instructions (Count)
system.cpu.iew.dispNonSpecInsts                   248                       # Number of dispatched non-speculative instructions (Count)
system.cpu.iew.iqFullEvents                      5879                       # Number of times the IQ has become full, causing a stall (Count)
system.cpu.iew.lsqFullEvents                    56580                       # Number of times the LSQ has become full, causing a stall (Count)
system.cpu.iew.memOrderViolationEvents            534                       # Number of memory order violations (Count)
system.cpu.iew.predictedTakenIncorrect          27510                       # Number of branches that were predicted taken incorrectly (Count)
system.cpu.iew.predictedNotTakenIncorrect        38754                       # Number of branches that were predicted not taken incorrectly (Count)
system.cpu.iew.branchMispredicts                66264                       # Number of branch mispredicts detected at execute (Count)
system.cpu.iew.mispredictedLVP                 197113                       # mispredictedLVP (Count)
system.cpu.iew.LvpCorrect                     1082823                       # LvpCorrect (Count)
system.cpu.iew.instsToCommit                 22492887                       # Cumulative count of insts sent to commit (Count)
system.cpu.iew.writebackCount                22404024                       # Cumulative count of insts written-back (Count)
system.cpu.iew.producerInst                  16787155                       # Number of instructions producing a value (Count)
system.cpu.iew.consumerInst                  28535625                       # Number of instructions consuming a value (Count)
system.cpu.iew.wbRate                        1.983370                       # Insts written-back per cycle ((Count/Cycle))
system.cpu.iew.wbFanout                      0.588288                       # Average fanout of values written-back ((Count/Count))
system.cpu.interrupts.clk_domain.clock           8000                       # Clock period in ticks (Tick)
system.cpu.itb_walker_cache.blockedCycles::no_mshrs            0                       # number of cycles access was blocked (Cycle)
system.cpu.itb_walker_cache.blockedCycles::no_targets            0                       # number of cycles access was blocked (Cycle)
system.cpu.itb_walker_cache.blockedCauses::no_mshrs            0                       # number of times access was blocked (Count)
system.cpu.itb_walker_cache.blockedCauses::no_targets            0                       # number of times access was blocked (Count)
system.cpu.itb_walker_cache.avgBlocked::no_mshrs          nan                       # average number of cycles each access was blocked ((Cycle/Count))
system.cpu.itb_walker_cache.avgBlocked::no_targets          nan                       # average number of cycles each access was blocked ((Cycle/Count))
system.cpu.itb_walker_cache.replacements            0                       # number of replacements (Count)
system.cpu.itb_walker_cache.power_state.pwrStateResidencyTicks::UNDEFINED   5647969000                       # Cumulative time (in ticks) in various power states (Tick)
system.cpu.itb_walker_cache.tags.tagsInUse            0                       # Average ticks per tags in use ((Tick/Count))
system.cpu.itb_walker_cache.tags.totalRefs            0                       # Total number of references to valid blocks. (Count)
system.cpu.itb_walker_cache.tags.sampledRefs            0                       # Sample count of references to valid blocks. (Count)
system.cpu.itb_walker_cache.tags.avgRefs          nan                       # Average number of references to valid blocks. ((Count/Count))
system.cpu.itb_walker_cache.tags.warmupTick            0                       # The tick when the warmup percentage was hit. (Tick)
system.cpu.itb_walker_cache.tags.tagAccesses            0                       # Number of tag accesses (Count)
system.cpu.itb_walker_cache.tags.dataAccesses            0                       # Number of data accesses (Count)
system.cpu.itb_walker_cache.tags.power_state.pwrStateResidencyTicks::UNDEFINED   5647969000                       # Cumulative time (in ticks) in various power states (Tick)
system.cpu.lsq0.forwLoads                      266683                       # Number of loads that had data forwarded from stores (Count)
system.cpu.lsq0.squashedLoads                  915975                       # Number of loads squashed (Count)
system.cpu.lsq0.ignoredResponses                  966                       # Number of memory responses ignored because the instruction is squashed (Count)
system.cpu.lsq0.memOrderViolation                 534                       # Number of memory ordering violations (Count)
system.cpu.lsq0.squashedStores                 322272                       # Number of stores squashed (Count)
system.cpu.lsq0.rescheduledLoads                 1442                       # Number of loads that were rescheduled (Count)
system.cpu.lsq0.blockedByCache                    525                       # Number of times an access to memory failed due to the cache being blocked (Count)
system.cpu.lsq0.loadToUse::samples            2182663                       # Distribution of cycle latency between the first time a load is issued and its completion (Unspecified)
system.cpu.lsq0.loadToUse::mean              5.352162                       # Distribution of cycle latency between the first time a load is issued and its completion (Unspecified)
system.cpu.lsq0.loadToUse::stdev            19.490173                       # Distribution of cycle latency between the first time a load is issued and its completion (Unspecified)
system.cpu.lsq0.loadToUse::0-9                2143468     98.20%     98.20% # Distribution of cycle latency between the first time a load is issued and its completion (Unspecified)
system.cpu.lsq0.loadToUse::10-19                 1197      0.05%     98.26% # Distribution of cycle latency between the first time a load is issued and its completion (Unspecified)
system.cpu.lsq0.loadToUse::20-29                  483      0.02%     98.28% # Distribution of cycle latency between the first time a load is issued and its completion (Unspecified)
system.cpu.lsq0.loadToUse::30-39                  217      0.01%     98.29% # Distribution of cycle latency between the first time a load is issued and its completion (Unspecified)
system.cpu.lsq0.loadToUse::40-49                  293      0.01%     98.30% # Distribution of cycle latency between the first time a load is issued and its completion (Unspecified)
system.cpu.lsq0.loadToUse::50-59                  225      0.01%     98.31% # Distribution of cycle latency between the first time a load is issued and its completion (Unspecified)
system.cpu.lsq0.loadToUse::60-69                  350      0.02%     98.33% # Distribution of cycle latency between the first time a load is issued and its completion (Unspecified)
[...]
system.mem_ctrls.dram.perBankWrBursts::2          324                       # Per bank write bursts (Count)
system.mem_ctrls.dram.perBankWrBursts::3          519                       # Per bank write bursts (Count)
system.mem_ctrls.dram.perBankWrBursts::4          396                       # Per bank write bursts (Count)
system.mem_ctrls.dram.perBankWrBursts::5          153                       # Per bank write bursts (Count)
system.mem_ctrls.dram.perBankWrBursts::6          314                       # Per bank write bursts (Count)
system.mem_ctrls.dram.perBankWrBursts::7          293                       # Per bank write bursts (Count)
system.mem_ctrls.dram.perBankWrBursts::8          267                       # Per bank write bursts (Count)
system.mem_ctrls.dram.perBankWrBursts::9          492                       # Per bank write bursts (Count)
system.mem_ctrls.dram.perBankWrBursts::10          402                       # Per bank write bursts (Count)
system.mem_ctrls.dram.perBankWrBursts::11          278                       # Per bank write bursts (Count)
system.mem_ctrls.dram.perBankWrBursts::12          270                       # Per bank write bursts (Count)
system.mem_ctrls.dram.perBankWrBursts::13          156                       # Per bank write bursts (Count)
system.mem_ctrls.dram.perBankWrBursts::14          263                       # Per bank write bursts (Count)
system.mem_ctrls.dram.perBankWrBursts::15          256                       # Per bank write bursts (Count)
system.mem_ctrls.dram.totQLat               408572750                       # Total ticks spent queuing (Tick)
system.mem_ctrls.dram.totBusLat             114830000                       # Total ticks spent in databus transfers (Tick)
system.mem_ctrls.dram.totMemAccLat          839185250                       # Total ticks spent from burst creation until serviced by the DRAM (Tick)
system.mem_ctrls.dram.avgQLat                17790.33                       # Average queueing delay per DRAM burst ((Tick/Count))
system.mem_ctrls.dram.avgBusLat               5000.00                       # Average bus latency per DRAM burst ((Tick/Count))
system.mem_ctrls.dram.avgMemAccLat           36540.33                       # Average memory access latency per DRAM burst ((Tick/Count))
system.mem_ctrls.dram.readRowHits               10735                       # Number of row buffer hits during reads (Count)
system.mem_ctrls.dram.writeRowHits               3606                       # Number of row buffer hits during writes (Count)
system.mem_ctrls.dram.readRowHitRate            46.74                       # Row buffer hit rate for reads (Ratio)
system.mem_ctrls.dram.writeRowHitRate           73.64                       # Row buffer hit rate for writes (Ratio)
system.mem_ctrls.dram.bytesPerActivate::samples        13521                       # Bytes accessed per row activation (Byte)
system.mem_ctrls.dram.bytesPerActivate::mean   131.881370                       # Bytes accessed per row activation (Byte)
system.mem_ctrls.dram.bytesPerActivate::gmean    96.677232                       # Bytes accessed per row activation (Byte)
system.mem_ctrls.dram.bytesPerActivate::stdev   160.780364                       # Bytes accessed per row activation (Byte)
system.mem_ctrls.dram.bytesPerActivate::0-127         8585     63.49%     63.49% # Bytes accessed per row activation (Byte)
system.mem_ctrls.dram.bytesPerActivate::128-255         3438     25.43%     88.92% # Bytes accessed per row activation (Byte)
system.mem_ctrls.dram.bytesPerActivate::256-383          670      4.96%     93.88% # Bytes accessed per row activation (Byte)
system.mem_ctrls.dram.bytesPerActivate::384-511          276      2.04%     95.92% # Bytes accessed per row activation (Byte)
system.mem_ctrls.dram.bytesPerActivate::512-639          144      1.07%     96.98% # Bytes accessed per row activation (Byte)
system.mem_ctrls.dram.bytesPerActivate::640-767          107      0.79%     97.77% # Bytes accessed per row activation (Byte)
system.mem_ctrls.dram.bytesPerActivate::768-895           51      0.38%     98.15% # Bytes accessed per row activation (Byte)
system.mem_ctrls.dram.bytesPerActivate::896-1023           36      0.27%     98.42% # Bytes accessed per row activation (Byte)
system.mem_ctrls.dram.bytesPerActivate::1024-1151          214      1.58%    100.00% # Bytes accessed per row activation (Byte)
system.mem_ctrls.dram.bytesPerActivate::total        13521                       # Bytes accessed per row activation (Byte)
system.mem_ctrls.dram.bytesRead               1469824                       # Total bytes read (Byte)
system.mem_ctrls.dram.bytesWritten             313408                       # Total bytes written (Byte)
system.mem_ctrls.dram.avgRdBW              260.239389                       # Average DRAM read bandwidth in MiBytes/s ((Byte/Second))
system.mem_ctrls.dram.avgWrBW               55.490390                       # Average DRAM write bandwidth in MiBytes/s ((Byte/Second))
system.mem_ctrls.dram.peakBW                 12800.00                       # Theoretical peak bandwidth in MiByte/s ((Byte/Second))
system.mem_ctrls.dram.busUtil                    2.47                       # Data bus utilization in percentage (Ratio)
system.mem_ctrls.dram.busUtilRead                2.03                       # Data bus utilization in percentage for reads (Ratio)
system.mem_ctrls.dram.busUtilWrite               0.43                       # Data bus utilization in percentage for writes (Ratio)
system.mem_ctrls.dram.pageHitRate               51.47                       # Row buffer hit rate, read and write combined (Ratio)
system.mem_ctrls.dram.power_state.pwrStateResidencyTicks::UNDEFINED   5647969000                       # Cumulative time (in ticks) in various power states (Tick)
system.mem_ctrls.dram.rank0.actEnergy        51408000                       # Energy for activate commands per rank (pJ) (Joule)
system.mem_ctrls.dram.rank0.preEnergy        27324000                       # Energy for precharge commands per rank (pJ) (Joule)
system.mem_ctrls.dram.rank0.readEnergy       86465400                       # Energy for read commands per rank (pJ) (Joule)
system.mem_ctrls.dram.rank0.writeEnergy      13117860                       # Energy for write commands per rank (pJ) (Joule)
system.mem_ctrls.dram.rank0.refreshEnergy 445614000.000000                       # Energy for refresh commands per rank (pJ) (Joule)
system.mem_ctrls.dram.rank0.actBackEnergy   2077380390                       # Energy for active background per rank (pJ) (Joule)
system.mem_ctrls.dram.rank0.preBackEnergy    419447520                       # Energy for precharge background per rank (pJ) (Joule)
system.mem_ctrls.dram.rank0.actPowerDownEnergy            0                       # Energy for active power-down per rank (pJ) (Joule)
system.mem_ctrls.dram.rank0.prePowerDownEnergy            0                       # Energy for precharge power-down per rank (pJ) (Joule)
system.mem_ctrls.dram.rank0.selfRefreshEnergy            0                       # Energy for self refresh per rank (pJ) (Joule)
system.mem_ctrls.dram.rank0.totalEnergy    3120757170                       # Total energy per rank (pJ) (Joule)
system.mem_ctrls.dram.rank0.averagePower   552.545025                       # Core power per rank (mW) (Watt)
system.mem_ctrls.dram.rank0.totalIdleTime            0                       # Total Idle time Per DRAM Rank (Tick)
system.mem_ctrls.dram.rank0.pwrStateTime::IDLE   1071092000                       # Time in different power states (Tick)
system.mem_ctrls.dram.rank0.pwrStateTime::REF    188500000                       # Time in different power states (Tick)
system.mem_ctrls.dram.rank0.pwrStateTime::SREF            0                       # Time in different power states (Tick)
system.mem_ctrls.dram.rank0.pwrStateTime::PRE_PDN            0                       # Time in different power states (Tick)
system.mem_ctrls.dram.rank0.pwrStateTime::ACT   4388377000                       # Time in different power states (Tick)
system.mem_ctrls.dram.rank0.pwrStateTime::ACT_PDN            0                       # Time in different power states (Tick)
system.mem_ctrls.dram.rank1.actEnergy        45139080                       # Energy for activate commands per rank (pJ) (Joule)
system.mem_ctrls.dram.rank1.preEnergy        23988195                       # Energy for precharge commands per rank (pJ) (Joule)
system.mem_ctrls.dram.rank1.readEnergy       77511840                       # Energy for read commands per rank (pJ) (Joule)
system.mem_ctrls.dram.rank1.writeEnergy      12444480                       # Energy for write commands per rank (pJ) (Joule)
system.mem_ctrls.dram.rank1.refreshEnergy 445614000.000000                       # Energy for refresh commands per rank (pJ) (Joule)
system.mem_ctrls.dram.rank1.actBackEnergy   1778621160                       # Energy for active background per rank (pJ) (Joule)
system.mem_ctrls.dram.rank1.preBackEnergy    671034240                       # Energy for precharge background per rank (pJ) (Joule)
system.mem_ctrls.dram.rank1.actPowerDownEnergy            0                       # Energy for active power-down per rank (pJ) (Joule)
system.mem_ctrls.dram.rank1.prePowerDownEnergy            0                       # Energy for precharge power-down per rank (pJ) (Joule)
system.mem_ctrls.dram.rank1.selfRefreshEnergy            0                       # Energy for self refresh per rank (pJ) (Joule)
system.mem_ctrls.dram.rank1.totalEnergy    3054352995                       # Total energy per rank (pJ) (Joule)
system.mem_ctrls.dram.rank1.averagePower   540.787847                       # Core power per rank (mW) (Watt)
system.mem_ctrls.dram.rank1.totalIdleTime            0                       # Total Idle time Per DRAM Rank (Tick)
system.mem_ctrls.dram.rank1.pwrStateTime::IDLE   1727835000                       # Time in different power states (Tick)
system.mem_ctrls.dram.rank1.pwrStateTime::REF    188500000                       # Time in different power states (Tick)
system.mem_ctrls.dram.rank1.pwrStateTime::SREF            0                       # Time in different power states (Tick)
system.mem_ctrls.dram.rank1.pwrStateTime::PRE_PDN            0                       # Time in different power states (Tick)
system.mem_ctrls.dram.rank1.pwrStateTime::ACT   3731634000                       # Time in different power states (Tick)
system.mem_ctrls.dram.rank1.pwrStateTime::ACT_PDN            0                       # Time in different power states (Tick)
system.mem_ctrls.power_state.pwrStateResidencyTicks::UNDEFINED   5647969000                       # Cumulative time (in ticks) in various power states (Tick)
system.membus.transDist::ReadResp               53390                       # Transaction distribution (Count)
system.membus.transDist::WritebackDirty          3096                       # Transaction distribution (Count)
system.membus.transDist::WritebackClean         35289                       # Transaction distribution (Count)
system.membus.transDist::CleanEvict             16929                       # Transaction distribution (Count)
system.membus.transDist::UpgradeReq                 5                       # Transaction distribution (Count)
system.membus.transDist::ReadExReq               3459                       # Transaction distribution (Count)
system.membus.transDist::ReadExResp              3459                       # Transaction distribution (Count)
system.membus.transDist::ReadCleanReq           35801                       # Transaction distribution (Count)
system.membus.transDist::ReadSharedReq          17590                       # Transaction distribution (Count)
system.membus.pktCount_system.cpu.icache.mem_side_port::system.mem_ctrls.port       106885                       # Packet count per connected requestor and responder (Count)
system.membus.pktCount_system.cpu.icache.mem_side_port::total       106885                       # Packet count per connected requestor and responder (Count)
system.membus.pktCount_system.cpu.dcache.mem_side_port::system.mem_ctrls.port        62128                       # Packet count per connected requestor and responder (Count)
system.membus.pktCount_system.cpu.dcache.mem_side_port::total        62128                       # Packet count per connected requestor and responder (Count)
system.membus.pktCount::total                  169013                       # Packet count per connected requestor and responder (Count)
system.membus.pktSize_system.cpu.icache.mem_side_port::system.mem_ctrls.port      4549376                       # Cumulative packet size per connected requestor and responder (Byte)
system.membus.pktSize_system.cpu.icache.mem_side_port::total      4549376                       # Cumulative packet size per connected requestor and responder (Byte)
system.membus.pktSize_system.cpu.dcache.mem_side_port::system.mem_ctrls.port      1545280                       # Cumulative packet size per connected requestor and responder (Byte)
system.membus.pktSize_system.cpu.dcache.mem_side_port::total      1545280                       # Cumulative packet size per connected requestor and responder (Byte)
system.membus.pktSize::total                  6094656                       # Cumulative packet size per connected requestor and responder (Byte)
system.membus.snoops                                5                       # Total snoops (Count)
system.membus.snoopTraffic                        320                       # Total snoop traffic (Byte)
system.membus.snoopFanout::samples              56855                       # Request fanout histogram (Count)
system.membus.snoopFanout::mean              0.000281                       # Request fanout histogram (Count)
system.membus.snoopFanout::stdev             0.016773                       # Request fanout histogram (Count)
system.membus.snoopFanout::underflows               0      0.00%      0.00% # Request fanout histogram (Count)
system.membus.snoopFanout::0                    56839     99.97%     99.97% # Request fanout histogram (Count)
system.membus.snoopFanout::1                       16      0.03%    100.00% # Request fanout histogram (Count)
system.membus.snoopFanout::2                        0      0.00%    100.00% # Request fanout histogram (Count)
system.membus.snoopFanout::3                        0      0.00%    100.00% # Request fanout histogram (Count)
system.membus.snoopFanout::4                        0      0.00%    100.00% # Request fanout histogram (Count)
system.membus.snoopFanout::overflows                0      0.00%    100.00% # Request fanout histogram (Count)
system.membus.snoopFanout::min_value                0                       # Request fanout histogram (Count)
system.membus.snoopFanout::max_value                1                       # Request fanout histogram (Count)
system.membus.snoopFanout::total                56855                       # Request fanout histogram (Count)
system.membus.power_state.pwrStateResidencyTicks::UNDEFINED   5647969000                       # Cumulative time (in ticks) in various power states (Tick)
system.membus.reqLayer2.occupancy           276138000                       # Layer occupancy (ticks) (Tick)
system.membus.reqLayer2.utilization               0.0                       # Layer utilization (Ratio)
system.membus.respLayer1.occupancy          179665000                       # Layer occupancy (ticks) (Tick)
system.membus.respLayer1.utilization              0.0                       # Layer utilization (Ratio)
system.membus.respLayer2.occupancy          114701750                       # Layer occupancy (ticks) (Tick)
system.membus.respLayer2.utilization              0.0                       # Layer utilization (Ratio)
system.membus.snoop_filter.totRequests         112169                       # Total number of requests made to the snoop filter. (Count)
system.membus.snoop_filter.hitSingleRequests        55316                       # Number of requests hitting in the snoop filter with a single holder of the requested data. (Count)
system.membus.snoop_filter.hitMultiRequests           14                       # Number of requests hitting in the snoop filter with multiple (>1) holders of the requested data. (Count)
system.membus.snoop_filter.totSnoops                0                       # Total number of snoops made to the snoop filter. (Count)
system.membus.snoop_filter.hitSingleSnoops            0                       # Number of snoops hitting in the snoop filter with a single holder of the requested data. (Count)
system.membus.snoop_filter.hitMultiSnoops            0                       # Number of snoops hitting in the snoop filter with multiple (>1) holders of the requested data. (Count)
system.voltage_domain.voltage                       1                       # Voltage in Volts (Volt)
system.workload.inst.arm                            0                       # number of arm instructions executed (Count)
system.workload.inst.quiesce                        0                       # number of quiesce instructions executed (Count)
system.cpu.loadValPred.constant_verification_unit.constLoadHits       216687                       # Number of loads marked constant that hit in the CVU CAM (Unspecified)
system.cpu.loadValPred.constant_verification_unit.constLoadMisses       476117                       # Number of loads marked constant that missed in the CVU CAM (Unspecified)
system.cpu.loadValPred.constant_verification_unit.numCAMReplacements       239523                       # Number of CVU CAM entries replaced (Unspecified)
system.cpu.loadValPred.constant_verification_unit.numLoadAccesses       692804                       # Number of loads marked constant which accessed the CVU (Unspecified)
system.cpu.loadValPred.constant_verification_unit.numStoreAccesses      1240897                       # Number of store instructions which accessed the CVU (Unspecified)
system.cpu.loadValPred.constant_verification_unit.numStoreHits       234011                       # Number of stores that hit in the CVU CAM (Unspecified)
system.cpu.loadValPred.constant_verification_unit.numStoreMisses      1006886                       # Number of stores that missed in the CVU CAM (Unspecified)
system.cpu.loadValPred.correctTotal           1082823                       # Number predictions corrects for predictable verification (Unspecified)
system.cpu.loadValPred.numConstLoads           737221                       # Number of loads classified as constant (Unspecified)
system.cpu.loadValPred.numConstLoadsCorrect       216687                       # Number of constant loads correctly predicted (Unspecified)
system.cpu.loadValPred.numConstLoadsMispredicted       476117                       # Number of constant loads incorrectly predicted (Unspecified)
system.cpu.loadValPred.numConstValOne           37147                       # Number of constant loads with value 1 (Unspecified)
system.cpu.loadValPred.numConstValZero          87535                       # Number of constant loads with value 0 (Unspecified)
system.cpu.loadValPred.numPredictableLoads       627547                       # Number of loads classified as predictable (Unspecified)
system.cpu.loadValPred.numPredictableLoadsCorrect       475719                       # Number of loads correctly classified as predictable (Unspecified)
system.cpu.loadValPred.numPredictableLoadsIncorrect       111413                       # Number of loads incorrectly classified as predictable (Unspecified)
system.cpu.loadValPred.totalLoads             2726617                       # Total loads processed by the Load value predictor (Unspecified)
system.cpu.loadValPred.valueLocalityNumerator      1383526                       # Number predictions corrects (Unspecified)

---------- End Simulation Statistics   ----------
