
---------- Begin Simulation Statistics ----------
simSeconds                                   0.062590                       # Number of seconds simulated (Second)
simTicks                                  62590000000                       # Number of ticks simulated (Tick)
finalTick                                 62590000000                       # Number of ticks from beginning of simulation (restored from checkpoints and never reset) (Tick)
simFreq                                  1000000000000                       # The number of ticks per simulated second ((Tick/Second))
hostSeconds                                    256.96                       # Real time elapsed on the host (Second)
hostTickRate                                243574196                       # The number of ticks simulated per host second (ticks/s) ((Tick/Second))
hostMemory                                    8725444                       # Number of bytes of host memory used (Byte)
simInsts                                     10000000                       # Number of instructions simulated (Count)
simOps                                       14515873                       # Number of ops (including micro ops) simulated (Count)
hostInstRate                                    38916                       # Simulator instruction rate (inst/s) ((Count/Second))
hostOpRate                                      56490                       # Simulator op (including micro ops) rate (op/s) ((Count/Second))
system.clk_domain.clock                          1000                       # Clock period in ticks (Tick)
system.cpu.numCycles                        125180001                       # Number of cpu cycles simulated (Cycle)
system.cpu.numWorkItemsStarted                      0                       # Number of work items this cpu started (Count)
system.cpu.numWorkItemsCompleted                    0                       # Number of work items this cpu completed (Count)
system.cpu.instsAdded                        15722012                       # Number of instructions added to the IQ (excludes non-spec) (Count)
system.cpu.nonSpecInstsAdded                       96                       # Number of non-speculative instructions added to the IQ (Count)
system.cpu.instsIssued                       15594668                       # Number of instructions issued (Count)
system.cpu.squashedInstsIssued                   1436                       # Number of squashed instructions issued (Count)
system.cpu.squashedInstsExamined              1206231                       # Number of squashed instructions iterated over during squash; mainly for profiling (Count)
system.cpu.squashedOperandsExamined           1937686                       # Number of squashed operands that are examined and possibly removed from graph (Count)
system.cpu.squashedNonSpecRemoved                  51                       # Number of squashed non-spec instructions that were removed (Count)
system.cpu.numIssuedDist::samples           125117815                       # Number of insts issued each cycle (Count)
system.cpu.numIssuedDist::mean               0.124640                       # Number of insts issued each cycle (Count)
system.cpu.numIssuedDist::stdev              0.613487                       # Number of insts issued each cycle (Count)
system.cpu.numIssuedDist::underflows                0      0.00%      0.00% # Number of insts issued each cycle (Count)
system.cpu.numIssuedDist::0                 116220164     92.89%     92.89% # Number of insts issued each cycle (Count)
system.cpu.numIssuedDist::1                   6726096      5.38%     98.26% # Number of insts issued each cycle (Count)
system.cpu.numIssuedDist::2                    563386      0.45%     98.71% # Number of insts issued each cycle (Count)
system.cpu.numIssuedDist::3                    359244      0.29%     99.00% # Number of insts issued each cycle (Count)
system.cpu.numIssuedDist::4                    299381      0.24%     99.24% # Number of insts issued each cycle (Count)
system.cpu.numIssuedDist::5                    367425      0.29%     99.53% # Number of insts issued each cycle (Count)
system.cpu.numIssuedDist::6                    501325      0.40%     99.94% # Number of insts issued each cycle (Count)
system.cpu.numIssuedDist::7                     24883      0.02%     99.96% # Number of insts issued each cycle (Count)
system.cpu.numIssuedDist::8                     55911      0.04%    100.00% # Number of insts issued each cycle (Count)
system.cpu.numIssuedDist::overflows                 0      0.00%    100.00% # Number of insts issued each cycle (Count)
system.cpu.numIssuedDist::min_value                 0                       # Number of insts issued each cycle (Count)
system.cpu.numIssuedDist::max_value                 8                       # Number of insts issued each cycle (Count)
system.cpu.numIssuedDist::total             125117815                       # Number of insts issued each cycle (Count)
system.cpu.statFuBusy::No_OpClass                   0      0.00%      0.00% # attempts to use FU when none available (Count)
system.cpu.statFuBusy::IntAlu                    5437      5.09%      5.09% # attempts to use FU when none available (Count)
system.cpu.statFuBusy::IntMult                      0      0.00%      5.09% # attempts to use FU when none available (Count)
system.cpu.statFuBusy::IntDiv                       0      0.00%      5.09% # attempts to use FU when none available (Count)
system.cpu.statFuBusy::FloatAdd                     0      0.00%      5.09% # attempts to use FU when none available (Count)
system.cpu.statFuBusy::FloatCmp                     0      0.00%      5.09% # attempts to use FU when none available (Count)
system.cpu.statFuBusy::FloatCvt                     0      0.00%      5.09% # attempts to use FU when none available (Count)
system.cpu.statFuBusy::FloatMult                    0      0.00%      5.09% # attempts to use FU when none available (Count)
system.cpu.statFuBusy::FloatMultAcc                 0      0.00%      5.09% # attempts to use FU when none available (Count)
system.cpu.statFuBusy::FloatDiv                     0      0.00%      5.09% # attempts to use FU when none available (Count)
system.cpu.statFuBusy::FloatMisc                    0      0.00%      5.09% # attempts to use FU when none available (Count)
system.cpu.statFuBusy::FloatSqrt                    0      0.00%      5.09% # attempts to use FU when none available (Count)
system.cpu.statFuBusy::SimdAdd                      0      0.00%      5.09% # attempts to use FU when none available (Count)
system.cpu.statFuBusy::SimdAddAcc                   0      0.00%      5.09% # attempts to use FU when none available (Count)
system.cpu.statFuBusy::SimdAlu                      2      0.00%      5.09% # attempts to use FU when none available (Count)
system.cpu.statFuBusy::SimdCmp                      0      0.00%      5.09% # attempts to use FU when none available (Count)
system.cpu.statFuBusy::SimdCvt                      4      0.00%      5.10% # attempts to use FU when none available (Count)
system.cpu.statFuBusy::SimdMisc                     3      0.00%      5.10% # attempts to use FU when none available (Count)
system.cpu.statFuBusy::SimdMult                     0      0.00%      5.10% # attempts to use FU when none available (Count)
system.cpu.statFuBusy::SimdMultAcc                  0      0.00%      5.10% # attempts to use FU when none available (Count)
system.cpu.statFuBusy::SimdShift                    0      0.00%      5.10% # attempts to use FU when none available (Count)
system.cpu.statFuBusy::SimdShiftAcc                 0      0.00%      5.10% # attempts to use FU when none available (Count)
system.cpu.statFuBusy::SimdDiv                      0      0.00%      5.10% # attempts to use FU when none available (Count)
system.cpu.statFuBusy::SimdSqrt                     0      0.00%      5.10% # attempts to use FU when none available (Count)
system.cpu.statFuBusy::SimdFloatAdd                 0      0.00%      5.10% # attempts to use FU when none available (Count)
system.cpu.statFuBusy::SimdFloatAlu                 0      0.00%      5.10% # attempts to use FU when none available (Count)
system.cpu.statFuBusy::SimdFloatCmp                 0      0.00%      5.10% # attempts to use FU when none available (Count)
system.cpu.statFuBusy::SimdFloatCvt                 0      0.00%      5.10% # attempts to use FU when none available (Count)
system.cpu.statFuBusy::SimdFloatDiv                 0      0.00%      5.10% # attempts to use FU when none available (Count)
system.cpu.statFuBusy::SimdFloatMisc                0      0.00%      5.10% # attempts to use FU when none available (Count)
system.cpu.statFuBusy::SimdFloatMult                0      0.00%      5.10% # attempts to use FU when none available (Count)
system.cpu.statFuBusy::SimdFloatMultAcc             0      0.00%      5.10% # attempts to use FU when none available (Count)
system.cpu.statFuBusy::SimdFloatSqrt                0      0.00%      5.10% # attempts to use FU when none available (Count)
system.cpu.statFuBusy::SimdReduceAdd                0      0.00%      5.10% # attempts to use FU when none available (Count)
system.cpu.statFuBusy::SimdReduceAlu                0      0.00%      5.10% # attempts to use FU when none available (Count)
system.cpu.statFuBusy::SimdReduceCmp                0      0.00%      5.10% # attempts to use FU when none available (Count)
system.cpu.statFuBusy::SimdFloatReduceAdd            0      0.00%      5.10% # attempts to use FU when none available (Count)
system.cpu.statFuBusy::SimdFloatReduceCmp            0      0.00%      5.10% # attempts to use FU when none available (Count)
system.cpu.statFuBusy::SimdAes                      0      0.00%      5.10% # attempts to use FU when none available (Count)
system.cpu.statFuBusy::SimdAesMix                   0      0.00%      5.10% # attempts to use FU when none available (Count)
system.cpu.statFuBusy::SimdSha1Hash                 0      0.00%      5.10% # attempts to use FU when none available (Count)
system.cpu.statFuBusy::SimdSha1Hash2                0      0.00%      5.10% # attempts to use FU when none available (Count)
system.cpu.statFuBusy::SimdSha256Hash               0      0.00%      5.10% # attempts to use FU when none available (Count)
system.cpu.statFuBusy::SimdSha256Hash2              0      0.00%      5.10% # attempts to use FU when none available (Count)
system.cpu.statFuBusy::SimdShaSigma2                0      0.00%      5.10% # attempts to use FU when none available (Count)
system.cpu.statFuBusy::SimdShaSigma3                0      0.00%      5.10% # attempts to use FU when none available (Count)
system.cpu.statFuBusy::SimdPredAlu                  0      0.00%      5.10% # attempts to use FU when none available (Count)
system.cpu.statFuBusy::MemRead                    820      0.77%      5.87% # attempts to use FU when none available (Count)
system.cpu.statFuBusy::MemWrite                 15190     14.22%     20.09% # attempts to use FU when none available (Count)
system.cpu.statFuBusy::FloatMemRead             14298     13.39%     33.47% # attempts to use FU when none available (Count)
system.cpu.statFuBusy::FloatMemWrite            71058     66.53%    100.00% # attempts to use FU when none available (Count)
system.cpu.statFuBusy::IprAccess                    0      0.00%    100.00% # attempts to use FU when none available (Count)
system.cpu.statFuBusy::InstPrefetch                 0      0.00%    100.00% # attempts to use FU when none available (Count)
system.cpu.statIssuedInstType_0::No_OpClass         2149      0.01%      0.01% # Number of instructions issued per FU type, per thread (Count)
system.cpu.statIssuedInstType_0::IntAlu       5423504     34.78%     34.79% # Number of instructions issued per FU type, per thread (Count)
system.cpu.statIssuedInstType_0::IntMult           71      0.00%     34.79% # Number of instructions issued per FU type, per thread (Count)
system.cpu.statIssuedInstType_0::IntDiv          1850      0.01%     34.80% # Number of instructions issued per FU type, per thread (Count)
system.cpu.statIssuedInstType_0::FloatAdd      1162469      7.45%     42.26% # Number of instructions issued per FU type, per thread (Count)
system.cpu.statIssuedInstType_0::FloatCmp            0      0.00%     42.26% # Number of instructions issued per FU type, per thread (Count)
system.cpu.statIssuedInstType_0::FloatCvt           80      0.00%     42.26% # Number of instructions issued per FU type, per thread (Count)
system.cpu.statIssuedInstType_0::FloatMult            0      0.00%     42.26% # Number of instructions issued per FU type, per thread (Count)
system.cpu.statIssuedInstType_0::FloatMultAcc            0      0.00%     42.26% # Number of instructions issued per FU type, per thread (Count)
system.cpu.statIssuedInstType_0::FloatDiv            0      0.00%     42.26% # Number of instructions issued per FU type, per thread (Count)
system.cpu.statIssuedInstType_0::FloatMisc            0      0.00%     42.26% # Number of instructions issued per FU type, per thread (Count)
system.cpu.statIssuedInstType_0::FloatSqrt            0      0.00%     42.26% # Number of instructions issued per FU type, per thread (Count)
system.cpu.statIssuedInstType_0::SimdAdd            0      0.00%     42.26% # Number of instructions issued per FU type, per thread (Count)
system.cpu.statIssuedInstType_0::SimdAddAcc            0      0.00%     42.26% # Number of instructions issued per FU type, per thread (Count)
system.cpu.statIssuedInstType_0::SimdAlu           41      0.00%     42.26% # Number of instructions issued per FU type, per thread (Count)
system.cpu.statIssuedInstType_0::SimdCmp            0      0.00%     42.26% # Number of instructions issued per FU type, per thread (Count)
system.cpu.statIssuedInstType_0::SimdCvt          133      0.00%     42.26% # Number of instructions issued per FU type, per thread (Count)
system.cpu.statIssuedInstType_0::SimdMisc          213      0.00%     42.26% # Number of instructions issued per FU type, per thread (Count)
system.cpu.statIssuedInstType_0::SimdMult            0      0.00%     42.26% # Number of instructions issued per FU type, per thread (Count)
system.cpu.statIssuedInstType_0::SimdMultAcc            0      0.00%     42.26% # Number of instructions issued per FU type, per thread (Count)
system.cpu.statIssuedInstType_0::SimdShift            0      0.00%     42.26% # Number of instructions issued per FU type, per thread (Count)
system.cpu.statIssuedInstType_0::SimdShiftAcc            0      0.00%     42.26% # Number of instructions issued per FU type, per thread (Count)
system.cpu.statIssuedInstType_0::SimdDiv            0      0.00%     42.26% # Number of instructions issued per FU type, per thread (Count)
system.cpu.statIssuedInstType_0::SimdSqrt            0      0.00%     42.26% # Number of instructions issued per FU type, per thread (Count)
system.cpu.statIssuedInstType_0::SimdFloatAdd            0      0.00%     42.26% # Number of instructions issued per FU type, per thread (Count)
system.cpu.statIssuedInstType_0::SimdFloatAlu            0      0.00%     42.26% # Number of instructions issued per FU type, per thread (Count)
system.cpu.statIssuedInstType_0::SimdFloatCmp            0      0.00%     42.26% # Number of instructions issued per FU type, per thread (Count)
system.cpu.statIssuedInstType_0::SimdFloatCvt            0      0.00%     42.26% # Number of instructions issued per FU type, per thread (Count)
system.cpu.statIssuedInstType_0::SimdFloatDiv            0      0.00%     42.26% # Number of instructions issued per FU type, per thread (Count)
system.cpu.statIssuedInstType_0::SimdFloatMisc            0      0.00%     42.26% # Number of instructions issued per FU type, per thread (Count)
system.cpu.statIssuedInstType_0::SimdFloatMult            0      0.00%     42.26% # Number of instructions issued per FU type, per thread (Count)
system.cpu.statIssuedInstType_0::SimdFloatMultAcc            0      0.00%     42.26% # Number of instructions issued per FU type, per thread (Count)
system.cpu.statIssuedInstType_0::SimdFloatSqrt            0      0.00%     42.26% # Number of instructions issued per FU type, per thread (Count)
system.cpu.statIssuedInstType_0::SimdReduceAdd            0      0.00%     42.26% # Number of instructions issued per FU type, per thread (Count)
system.cpu.statIssuedInstType_0::SimdReduceAlu            0      0.00%     42.26% # Number of instructions issued per FU type, per thread (Count)
system.cpu.statIssuedInstType_0::SimdReduceCmp            0      0.00%     42.26% # Number of instructions issued per FU type, per thread (Count)
system.cpu.statIssuedInstType_0::SimdFloatReduceAdd            0      0.00%     42.26% # Number of instructions issued per FU type, per thread (Count)
system.cpu.statIssuedInstType_0::SimdFloatReduceCmp            0      0.00%     42.26% # Number of instructions issued per FU type, per thread (Count)
system.cpu.statIssuedInstType_0::SimdAes            0      0.00%     42.26% # Number of instructions issued per FU type, per thread (Count)
system.cpu.statIssuedInstType_0::SimdAesMix            0      0.00%     42.26% # Number of instructions issued per FU type, per thread (Count)
system.cpu.statIssuedInstType_0::SimdSha1Hash            0      0.00%     42.26% # Number of instructions issued per FU type, per thread (Count)
system.cpu.statIssuedInstType_0::SimdSha1Hash2            0      0.00%     42.26% # Number of instructions issued per FU type, per thread (Count)
system.cpu.statIssuedInstType_0::SimdSha256Hash            0      0.00%     42.26% # Number of instructions issued per FU type, per thread (Count)
system.cpu.statIssuedInstType_0::SimdSha256Hash2            0      0.00%     42.26% # Number of instructions issued per FU type, per thread (Count)
system.cpu.statIssuedInstType_0::SimdShaSigma2            0      0.00%     42.26% # Number of instructions issued per FU type, per thread (Count)
system.cpu.statIssuedInstType_0::SimdShaSigma3            0      0.00%     42.26% # Number of instructions issued per FU type, per thread (Count)
system.cpu.statIssuedInstType_0::SimdPredAlu            0      0.00%     42.26% # Number of instructions issued per FU type, per thread (Count)
system.cpu.statIssuedInstType_0::MemRead        84968      0.54%     42.81% # Number of instructions issued per FU type, per thread (Count)
system.cpu.statIssuedInstType_0::MemWrite       417872      2.68%     45.49% # Number of instructions issued per FU type, per thread (Count)
system.cpu.statIssuedInstType_0::FloatMemRead      1162940      7.46%     52.94% # Number of instructions issued per FU type, per thread (Count)
system.cpu.statIssuedInstType_0::FloatMemWrite      7338378     47.06%    100.00% # Number of instructions issued per FU type, per thread (Count)
system.cpu.statIssuedInstType_0::IprAccess            0      0.00%    100.00% # Number of instructions issued per FU type, per thread (Count)
system.cpu.statIssuedInstType_0::InstPrefetch            0      0.00%    100.00% # Number of instructions issued per FU type, per thread (Count)
system.cpu.statIssuedInstType_0::total       15594668                       # Number of instructions issued per FU type, per thread (Count)
system.cpu.issueRate                         0.124578                       # Inst issue rate ((Count/Cycle))
system.cpu.fuBusy                              106812                       # FU busy when requested (Count)
system.cpu.fuBusyRate                        0.006849                       # FU busy rate (busy events/executed inst) ((Count/Count))
system.cpu.intInstQueueReads                137001343                       # Number of integer instruction queue reads (Count)
system.cpu.intInstQueueWrites                 6695102                       # Number of integer instruction queue writes (Count)
system.cpu.intInstQueueWakeupAccesses         5869017                       # Number of integer instruction queue wakeup accesses (Count)
system.cpu.fpInstQueueReads                  19414056                       # Number of floating instruction queue reads (Count)
system.cpu.fpInstQueueWrites                 10233315                       # Number of floating instruction queue writes (Count)
system.cpu.fpInstQueueWakeupAccesses          9408346                       # Number of floating instruction queue wakeup accesses (Count)
system.cpu.vecInstQueueReads                        0                       # Number of vector instruction queue reads (Count)
system.cpu.vecInstQueueWrites                       0                       # Number of vector instruction queue writes (Count)
system.cpu.vecInstQueueWakeupAccesses               0                       # Number of vector instruction queue wakeup accesses (Count)
system.cpu.intAluAccesses                     5949635                       # Number of integer alu accesses (Count)
system.cpu.fpAluAccesses                      9749696                       # Number of floating point alu accesses (Count)
system.cpu.vecAluAccesses                           0                       # Number of vector alu accesses (Count)
system.cpu.numInsts                          15576700                       # Number of executed instructions (Count)
system.cpu.numLoadInsts                       1243936                       # Number of load instructions executed (Count)
system.cpu.numSquashedInsts                     17968                       # Number of squashed instructions skipped in execute (Count)
system.cpu.numSwp                                   0                       # Number of swp insts executed (Count)
system.cpu.numNop                                   0                       # Number of nop insts executed (Count)
system.cpu.numRefs                            8999000                       # Number of memory reference insts executed (Count)
system.cpu.numBranches                         432650                       # Number of branches executed (Count)
system.cpu.numStoreInsts                      7755064                       # Number of stores executed (Count)
system.cpu.numRate                           0.124434                       # Inst execution rate ((Count/Cycle))
system.cpu.timesIdled                             695                       # Number of times that the entire CPU went into an idle state and unscheduled itself (Count)
system.cpu.idleCycles                           62186                       # Total number of cycles that the CPU has spent unscheduled due to idling (Cycle)
system.cpu.committedInsts                    10000000                       # Number of Instructions Simulated (Count)
system.cpu.committedOps                      14515873                       # Number of Ops (including micro ops) Simulated (Count)
system.cpu.cpi                              12.518000                       # CPI: Cycles Per Instruction ((Cycle/Count))
system.cpu.totalCpi                         12.518000                       # CPI: Total CPI of All Threads ((Cycle/Count))
system.cpu.ipc                               0.079885                       # IPC: Instructions Per Cycle ((Count/Cycle))
system.cpu.totalIpc                          0.079885                       # IPC: Total IPC of All Threads ((Count/Cycle))
system.cpu.intRegfileReads                   13085198                       # Number of integer regfile reads (Count)
system.cpu.intRegfileWrites                   4667969                       # Number of integer regfile writes (Count)
system.cpu.fpRegfileReads                     9664795                       # Number of floating regfile reads (Count)
system.cpu.fpRegfileWrites                    3488237                       # Number of floating regfile writes (Count)
system.cpu.ccRegfileReads                     2169850                       # number of cc regfile reads (Count)
system.cpu.ccRegfileWrites                    2487847                       # number of cc regfile writes (Count)
system.cpu.miscRegfileReads                  11047866                       # number of misc regfile reads (Count)
system.cpu.miscRegfileWrites                       45                       # number of misc regfile writes (Count)
system.cpu.MemDepUnit__0.insertedLoads        1261253                       # Number of loads inserted to the mem dependence unit. (Count)
system.cpu.MemDepUnit__0.insertedStores       7760641                       # Number of stores inserted to the mem dependence unit. (Count)
system.cpu.MemDepUnit__0.conflictingLoads         1812                       # Number of conflicting loads. (Count)
system.cpu.MemDepUnit__0.conflictingStores         1129                       # Number of conflicting stores. (Count)
system.cpu.MemDepUnit__1.insertedLoads              0                       # Number of loads inserted to the mem dependence unit. (Count)
system.cpu.MemDepUnit__1.insertedStores             0                       # Number of stores inserted to the mem dependence unit. (Count)
system.cpu.MemDepUnit__1.conflictingLoads            0                       # Number of conflicting loads. (Count)
system.cpu.MemDepUnit__1.conflictingStores            0                       # Number of conflicting stores. (Count)
system.cpu.MemDepUnit__2.insertedLoads              0                       # Number of loads inserted to the mem dependence unit. (Count)
system.cpu.MemDepUnit__2.insertedStores             0                       # Number of stores inserted to the mem dependence unit. (Count)
system.cpu.MemDepUnit__2.conflictingLoads            0                       # Number of conflicting loads. (Count)
system.cpu.MemDepUnit__2.conflictingStores            0                       # Number of conflicting stores. (Count)
system.cpu.MemDepUnit__3.insertedLoads              0                       # Number of loads inserted to the mem dependence unit. (Count)
system.cpu.MemDepUnit__3.insertedStores             0                       # Number of stores inserted to the mem dependence unit. (Count)
system.cpu.MemDepUnit__3.conflictingLoads            0                       # Number of conflicting loads. (Count)
system.cpu.MemDepUnit__3.conflictingStores            0                       # Number of conflicting stores. (Count)
system.cpu.branchPred.lookups                  508373                       # Number of BP lookups (Count)
system.cpu.branchPred.condPredicted            494284                       # Number of conditional branches predicted (Count)
system.cpu.branchPred.condIncorrect              5764                       # Number of conditional branches incorrect (Count)
system.cpu.branchPred.BTBLookups               456424                       # Number of BTB lookups (Count)
system.cpu.branchPred.BTBHits                  453934                       # Number of BTB hits (Count)
system.cpu.branchPred.BTBHitRatio            0.994545                       # BTB Hit Ratio (Ratio)
system.cpu.branchPred.RASUsed                    3513                       # Number of times the RAS was used to get a target. (Count)
system.cpu.branchPred.RASIncorrect                  1                       # Number of incorrect RAS predictions. (Count)
system.cpu.branchPred.indirectLookups            1219                       # Number of indirect predictor lookups. (Count)
system.cpu.branchPred.indirectHits                341                       # Number of indirect target hits. (Count)
system.cpu.branchPred.indirectMisses              878                       # Number of indirect misses. (Count)
system.cpu.branchPred.indirectMispredicted          195                       # Number of mispredicted indirect branches. (Count)
system.cpu.commit.commitSquashedInsts         1189064                       # The number of squashed insts skipped by commit (Count)
system.cpu.commit.commitNonSpecStalls              45                       # The number of times commit has been forced to stall to communicate backwards (Count)
system.cpu.commit.branchMispredicts              9412                       # The number of times a branch was mispredicted (Count)
system.cpu.commit.numCommittedDist::samples    124948834                       # Number of insts commited each cycle (Count)
system.cpu.commit.numCommittedDist::mean     0.116175                       # Number of insts commited each cycle (Count)
system.cpu.commit.numCommittedDist::stdev     0.573134                       # Number of insts commited each cycle (Count)
system.cpu.commit.numCommittedDist::underflows            0      0.00%      0.00% # Number of insts commited each cycle (Count)
system.cpu.commit.numCommittedDist::0       116616916     93.33%     93.33% # Number of insts commited each cycle (Count)
system.cpu.commit.numCommittedDist::1         5834042      4.67%     98.00% # Number of insts commited each cycle (Count)
system.cpu.commit.numCommittedDist::2          899983      0.72%     98.72% # Number of insts commited each cycle (Count)
system.cpu.commit.numCommittedDist::3          775644      0.62%     99.34% # Number of insts commited each cycle (Count)
system.cpu.commit.numCommittedDist::4          117133      0.09%     99.44% # Number of insts commited each cycle (Count)
system.cpu.commit.numCommittedDist::5          410738      0.33%     99.76% # Number of insts commited each cycle (Count)
system.cpu.commit.numCommittedDist::6           83487      0.07%     99.83% # Number of insts commited each cycle (Count)
system.cpu.commit.numCommittedDist::7          155339      0.12%     99.96% # Number of insts commited each cycle (Count)
system.cpu.commit.numCommittedDist::8           55552      0.04%    100.00% # Number of insts commited each cycle (Count)
system.cpu.commit.numCommittedDist::overflows            0      0.00%    100.00% # Number of insts commited each cycle (Count)
system.cpu.commit.numCommittedDist::min_value            0                       # Number of insts commited each cycle (Count)
system.cpu.commit.numCommittedDist::max_value            8                       # Number of insts commited each cycle (Count)
system.cpu.commit.numCommittedDist::total    124948834                       # Number of insts commited each cycle (Count)
system.cpu.commit.instsCommitted             10000000                       # Number of instructions committed (Count)
system.cpu.commit.opsCommitted               14515873                       # Number of ops (including micro ops) committed (Count)
system.cpu.commit.memRefs                     8431165                       # Number of memory references committed (Count)
system.cpu.commit.loads                       1138291                       # Number of loads committed (Count)
system.cpu.commit.amos                              0                       # Number of atomic instructions committed (Count)
system.cpu.commit.membars                           0                       # Number of memory barriers committed (Count)
system.cpu.commit.branches                     403977                       # Number of branches committed (Count)
system.cpu.commit.vectorInstructions                0                       # Number of committed Vector instructions. (Count)
system.cpu.commit.floating                    9095507                       # Number of committed floating point instructions. (Count)
system.cpu.commit.integer                    13420548                       # Number of committed integer instructions. (Count)
system.cpu.commit.functionCalls                  1208                       # Number of function calls committed. (Count)
system.cpu.commit.committedInstType_0::No_OpClass          688      0.00%      0.00% # Class of committed instruction (Count)
system.cpu.commit.committedInstType_0::IntAlu      4990510     34.38%     34.38% # Class of committed instruction (Count)
system.cpu.commit.committedInstType_0::IntMult           44      0.00%     34.38% # Class of committed instruction (Count)
system.cpu.commit.committedInstType_0::IntDiv         1668      0.01%     34.40% # Class of committed instruction (Count)
system.cpu.commit.committedInstType_0::FloatAdd      1091411      7.52%     41.91% # Class of committed instruction (Count)
system.cpu.commit.committedInstType_0::FloatCmp            0      0.00%     41.91% # Class of committed instruction (Count)
system.cpu.commit.committedInstType_0::FloatCvt           80      0.00%     41.92% # Class of committed instruction (Count)
system.cpu.commit.committedInstType_0::FloatMult            0      0.00%     41.92% # Class of committed instruction (Count)
system.cpu.commit.committedInstType_0::FloatMultAcc            0      0.00%     41.92% # Class of committed instruction (Count)
system.cpu.commit.committedInstType_0::FloatDiv            0      0.00%     41.92% # Class of committed instruction (Count)
system.cpu.commit.committedInstType_0::FloatMisc            0      0.00%     41.92% # Class of committed instruction (Count)
system.cpu.commit.committedInstType_0::FloatSqrt            0      0.00%     41.92% # Class of committed instruction (Count)
system.cpu.commit.committedInstType_0::SimdAdd            0      0.00%     41.92% # Class of committed instruction (Count)
system.cpu.commit.committedInstType_0::SimdAddAcc            0      0.00%     41.92% # Class of committed instruction (Count)
system.cpu.commit.committedInstType_0::SimdAlu           24      0.00%     41.92% # Class of committed instruction (Count)
system.cpu.commit.committedInstType_0::SimdCmp            0      0.00%     41.92% # Class of committed instruction (Count)
system.cpu.commit.committedInstType_0::SimdCvt          102      0.00%     41.92% # Class of committed instruction (Count)
system.cpu.commit.committedInstType_0::SimdMisc          181      0.00%     41.92% # Class of committed instruction (Count)
system.cpu.commit.committedInstType_0::SimdMult            0      0.00%     41.92% # Class of committed instruction (Count)
system.cpu.commit.committedInstType_0::SimdMultAcc            0      0.00%     41.92% # Class of committed instruction (Count)
system.cpu.commit.committedInstType_0::SimdShift            0      0.00%     41.92% # Class of committed instruction (Count)
system.cpu.commit.committedInstType_0::SimdShiftAcc            0      0.00%     41.92% # Class of committed instruction (Count)
system.cpu.commit.committedInstType_0::SimdDiv            0      0.00%     41.92% # Class of committed instruction (Count)
system.cpu.commit.committedInstType_0::SimdSqrt            0      0.00%     41.92% # Class of committed instruction (Count)
system.cpu.commit.committedInstType_0::SimdFloatAdd            0      0.00%     41.92% # Class of committed instruction (Count)
system.cpu.commit.committedInstType_0::SimdFloatAlu            0      0.00%     41.92% # Class of committed instruction (Count)
system.cpu.commit.committedInstType_0::SimdFloatCmp            0      0.00%     41.92% # Class of committed instruction (Count)
system.cpu.commit.committedInstType_0::SimdFloatCvt            0      0.00%     41.92% # Class of committed instruction (Count)
system.cpu.commit.committedInstType_0::SimdFloatDiv            0      0.00%     41.92% # Class of committed instruction (Count)
system.cpu.commit.committedInstType_0::SimdFloatMisc            0      0.00%     41.92% # Class of committed instruction (Count)
system.cpu.commit.committedInstType_0::SimdFloatMult            0      0.00%     41.92% # Class of committed instruction (Count)
system.cpu.commit.committedInstType_0::SimdFloatMultAcc            0      0.00%     41.92% # Class of committed instruction (Count)
system.cpu.commit.committedInstType_0::SimdFloatSqrt            0      0.00%     41.92% # Class of committed instruction (Count)
system.cpu.commit.committedInstType_0::SimdReduceAdd            0      0.00%     41.92% # Class of committed instruction (Count)
system.cpu.commit.committedInstType_0::SimdReduceAlu            0      0.00%     41.92% # Class of committed instruction (Count)
system.cpu.commit.committedInstType_0::SimdReduceCmp            0      0.00%     41.92% # Class of committed instruction (Count)
system.cpu.commit.committedInstType_0::SimdFloatReduceAdd            0      0.00%     41.92% # Class of committed instruction (Count)
system.cpu.commit.committedInstType_0::SimdFloatReduceCmp            0      0.00%     41.92% # Class of committed instruction (Count)
system.cpu.commit.committedInstType_0::SimdAes            0      0.00%     41.92% # Class of committed instruction (Count)
system.cpu.commit.committedInstType_0::SimdAesMix            0      0.00%     41.92% # Class of committed instruction (Count)
system.cpu.commit.committedInstType_0::SimdSha1Hash            0      0.00%     41.92% # Class of committed instruction (Count)
system.cpu.commit.committedInstType_0::SimdSha1Hash2            0      0.00%     41.92% # Class of committed instruction (Count)
system.cpu.commit.committedInstType_0::SimdSha256Hash            0      0.00%     41.92% # Class of committed instruction (Count)
system.cpu.commit.committedInstType_0::SimdSha256Hash2            0      0.00%     41.92% # Class of committed instruction (Count)
system.cpu.commit.committedInstType_0::SimdShaSigma2            0      0.00%     41.92% # Class of committed instruction (Count)
system.cpu.commit.committedInstType_0::SimdShaSigma3            0      0.00%     41.92% # Class of committed instruction (Count)
system.cpu.commit.committedInstType_0::SimdPredAlu            0      0.00%     41.92% # Class of committed instruction (Count)
system.cpu.commit.committedInstType_0::MemRead        46720      0.32%     42.24% # Class of committed instruction (Count)
system.cpu.commit.committedInstType_0::MemWrite       380799      2.62%     44.86% # Class of committed instruction (Count)
system.cpu.commit.committedInstType_0::FloatMemRead      1091571      7.52%     52.38% # Class of committed instruction (Count)
system.cpu.commit.committedInstType_0::FloatMemWrite      6912075     47.62%    100.00% # Class of committed instruction (Count)
system.cpu.commit.committedInstType_0::IprAccess            0      0.00%    100.00% # Class of committed instruction (Count)
system.cpu.commit.committedInstType_0::InstPrefetch            0      0.00%    100.00% # Class of committed instruction (Count)
system.cpu.commit.committedInstType_0::total     14515873                       # Class of committed instruction (Count)
system.cpu.commit.commitEligibleSamples         55552                       # number cycles where commit BW limit reached (Cycle)
system.cpu.dcache.demandHits::cpu.data        7609616                       # number of demand (read+write) hits (Count)
system.cpu.dcache.demandHits::total           7609616                       # number of demand (read+write) hits (Count)
system.cpu.dcache.overallHits::cpu.data       7609616                       # number of overall hits (Count)
system.cpu.dcache.overallHits::total          7609616                       # number of overall hits (Count)
system.cpu.dcache.demandMisses::cpu.data       921495                       # number of demand (read+write) misses (Count)
system.cpu.dcache.demandMisses::total          921495                       # number of demand (read+write) misses (Count)
system.cpu.dcache.overallMisses::cpu.data       921495                       # number of overall misses (Count)
system.cpu.dcache.overallMisses::total         921495                       # number of overall misses (Count)
system.cpu.dcache.demandMissLatency::cpu.data  56219123489                       # number of demand (read+write) miss ticks (Tick)
system.cpu.dcache.demandMissLatency::total  56219123489                       # number of demand (read+write) miss ticks (Tick)
system.cpu.dcache.overallMissLatency::cpu.data  56219123489                       # number of overall miss ticks (Tick)
system.cpu.dcache.overallMissLatency::total  56219123489                       # number of overall miss ticks (Tick)
system.cpu.dcache.demandAccesses::cpu.data      8531111                       # number of demand (read+write) accesses (Count)
system.cpu.dcache.demandAccesses::total       8531111                       # number of demand (read+write) accesses (Count)
system.cpu.dcache.overallAccesses::cpu.data      8531111                       # number of overall (read+write) accesses (Count)
system.cpu.dcache.overallAccesses::total      8531111                       # number of overall (read+write) accesses (Count)
system.cpu.dcache.demandMissRate::cpu.data     0.108016                       # miss rate for demand accesses (Ratio)
system.cpu.dcache.demandMissRate::total      0.108016                       # miss rate for demand accesses (Ratio)
system.cpu.dcache.overallMissRate::cpu.data     0.108016                       # miss rate for overall accesses (Ratio)
system.cpu.dcache.overallMissRate::total     0.108016                       # miss rate for overall accesses (Ratio)
system.cpu.dcache.demandAvgMissLatency::cpu.data 61008.603941                       # average overall miss latency in ticks ((Tick/Count))
system.cpu.dcache.demandAvgMissLatency::total 61008.603941                       # average overall miss latency in ticks ((Tick/Count))
system.cpu.dcache.overallAvgMissLatency::cpu.data 61008.603941                       # average overall miss latency ((Tick/Count))
system.cpu.dcache.overallAvgMissLatency::total 61008.603941                       # average overall miss latency ((Tick/Count))
system.cpu.dcache.blockedCycles::no_mshrs        12093                       # number of cycles access was blocked (Cycle)
system.cpu.dcache.blockedCycles::no_targets            0                       # number of cycles access was blocked (Cycle)
system.cpu.dcache.blockedCauses::no_mshrs          277                       # number of times access was blocked (Count)
system.cpu.dcache.blockedCauses::no_targets            0                       # number of times access was blocked (Count)
system.cpu.dcache.avgBlocked::no_mshrs      43.657040                       # average number of cycles each access was blocked ((Cycle/Count))
system.cpu.dcache.avgBlocked::no_targets          nan                       # average number of cycles each access was blocked ((Cycle/Count))
system.cpu.dcache.writebacks::writebacks       909071                       # number of writebacks (Count)
system.cpu.dcache.writebacks::total            909071                       # number of writebacks (Count)
system.cpu.dcache.demandMshrHits::cpu.data         9134                       # number of demand (read+write) MSHR hits (Count)
system.cpu.dcache.demandMshrHits::total          9134                       # number of demand (read+write) MSHR hits (Count)
system.cpu.dcache.overallMshrHits::cpu.data         9134                       # number of overall MSHR hits (Count)
system.cpu.dcache.overallMshrHits::total         9134                       # number of overall MSHR hits (Count)
system.cpu.dcache.demandMshrMisses::cpu.data       912361                       # number of demand (read+write) MSHR misses (Count)
system.cpu.dcache.demandMshrMisses::total       912361                       # number of demand (read+write) MSHR misses (Count)
system.cpu.dcache.overallMshrMisses::cpu.data       912361                       # number of overall MSHR misses (Count)
system.cpu.dcache.overallMshrMisses::total       912361                       # number of overall MSHR misses (Count)
system.cpu.dcache.demandMshrMissLatency::cpu.data  54876411489                       # number of demand (read+write) MSHR miss ticks (Tick)
system.cpu.dcache.demandMshrMissLatency::total  54876411489                       # number of demand (read+write) MSHR miss ticks (Tick)
system.cpu.dcache.overallMshrMissLatency::cpu.data  54876411489                       # number of overall MSHR miss ticks (Tick)
system.cpu.dcache.overallMshrMissLatency::total  54876411489                       # number of overall MSHR miss ticks (Tick)
system.cpu.dcache.demandMshrMissRate::cpu.data     0.106945                       # mshr miss ratio for demand accesses (Ratio)
system.cpu.dcache.demandMshrMissRate::total     0.106945                       # mshr miss ratio for demand accesses (Ratio)
system.cpu.dcache.overallMshrMissRate::cpu.data     0.106945                       # mshr miss ratio for overall accesses (Ratio)
system.cpu.dcache.overallMshrMissRate::total     0.106945                       # mshr miss ratio for overall accesses (Ratio)
system.cpu.dcache.demandAvgMshrMissLatency::cpu.data 60147.695363                       # average overall mshr miss latency ((Tick/Count))
system.cpu.dcache.demandAvgMshrMissLatency::total 60147.695363                       # average overall mshr miss latency ((Tick/Count))
system.cpu.dcache.overallAvgMshrMissLatency::cpu.data 60147.695363                       # average overall mshr miss latency ((Tick/Count))
system.cpu.dcache.overallAvgMshrMissLatency::total 60147.695363                       # average overall mshr miss latency ((Tick/Count))
system.cpu.dcache.replacements                 911337                       # number of replacements (Count)
system.cpu.dcache.ReadReq.hits::cpu.data      1226758                       # number of ReadReq hits (Count)
system.cpu.dcache.ReadReq.hits::total         1226758                       # number of ReadReq hits (Count)
system.cpu.dcache.ReadReq.misses::cpu.data        11501                       # number of ReadReq misses (Count)
system.cpu.dcache.ReadReq.misses::total         11501                       # number of ReadReq misses (Count)
system.cpu.dcache.ReadReq.missLatency::cpu.data    576015500                       # number of ReadReq miss ticks (Tick)
system.cpu.dcache.ReadReq.missLatency::total    576015500                       # number of ReadReq miss ticks (Tick)
system.cpu.dcache.ReadReq.accesses::cpu.data      1238259                       # number of ReadReq accesses(hits+misses) (Count)
system.cpu.dcache.ReadReq.accesses::total      1238259                       # number of ReadReq accesses(hits+misses) (Count)
system.cpu.dcache.ReadReq.missRate::cpu.data     0.009288                       # miss rate for ReadReq accesses (Ratio)
system.cpu.dcache.ReadReq.missRate::total     0.009288                       # miss rate for ReadReq accesses (Ratio)
system.cpu.dcache.ReadReq.avgMissLatency::cpu.data 50083.949222                       # average ReadReq miss latency ((Tick/Count))
system.cpu.dcache.ReadReq.avgMissLatency::total 50083.949222                       # average ReadReq miss latency ((Tick/Count))
system.cpu.dcache.ReadReq.mshrHits::cpu.data         9127                       # number of ReadReq MSHR hits (Count)
system.cpu.dcache.ReadReq.mshrHits::total         9127                       # number of ReadReq MSHR hits (Count)
system.cpu.dcache.ReadReq.mshrMisses::cpu.data         2374                       # number of ReadReq MSHR misses (Count)
system.cpu.dcache.ReadReq.mshrMisses::total         2374                       # number of ReadReq MSHR misses (Count)
system.cpu.dcache.ReadReq.mshrMissLatency::cpu.data    143569500                       # number of ReadReq MSHR miss ticks (Tick)
system.cpu.dcache.ReadReq.mshrMissLatency::total    143569500                       # number of ReadReq MSHR miss ticks (Tick)
system.cpu.dcache.ReadReq.mshrMissRate::cpu.data     0.001917                       # mshr miss rate for ReadReq accesses (Ratio)
system.cpu.dcache.ReadReq.mshrMissRate::total     0.001917                       # mshr miss rate for ReadReq accesses (Ratio)
system.cpu.dcache.ReadReq.avgMshrMissLatency::cpu.data 60475.779275                       # average ReadReq mshr miss latency ((Tick/Count))
system.cpu.dcache.ReadReq.avgMshrMissLatency::total 60475.779275                       # average ReadReq mshr miss latency ((Tick/Count))
system.cpu.dcache.WriteReq.hits::cpu.data      6382858                       # number of WriteReq hits (Count)
system.cpu.dcache.WriteReq.hits::total        6382858                       # number of WriteReq hits (Count)
system.cpu.dcache.WriteReq.misses::cpu.data       909994                       # number of WriteReq misses (Count)
system.cpu.dcache.WriteReq.misses::total       909994                       # number of WriteReq misses (Count)
system.cpu.dcache.WriteReq.missLatency::cpu.data  55643107989                       # number of WriteReq miss ticks (Tick)
system.cpu.dcache.WriteReq.missLatency::total  55643107989                       # number of WriteReq miss ticks (Tick)
system.cpu.dcache.WriteReq.accesses::cpu.data      7292852                       # number of WriteReq accesses(hits+misses) (Count)
system.cpu.dcache.WriteReq.accesses::total      7292852                       # number of WriteReq accesses(hits+misses) (Count)
system.cpu.dcache.WriteReq.missRate::cpu.data     0.124779                       # miss rate for WriteReq accesses (Ratio)
system.cpu.dcache.WriteReq.missRate::total     0.124779                       # miss rate for WriteReq accesses (Ratio)
system.cpu.dcache.WriteReq.avgMissLatency::cpu.data 61146.675680                       # average WriteReq miss latency ((Tick/Count))
system.cpu.dcache.WriteReq.avgMissLatency::total 61146.675680                       # average WriteReq miss latency ((Tick/Count))
system.cpu.dcache.WriteReq.mshrHits::cpu.data            7                       # number of WriteReq MSHR hits (Count)
system.cpu.dcache.WriteReq.mshrHits::total            7                       # number of WriteReq MSHR hits (Count)
system.cpu.dcache.WriteReq.mshrMisses::cpu.data       909987                       # number of WriteReq MSHR misses (Count)
system.cpu.dcache.WriteReq.mshrMisses::total       909987                       # number of WriteReq MSHR misses (Count)
system.cpu.dcache.WriteReq.mshrMissLatency::cpu.data  54732841989                       # number of WriteReq MSHR miss ticks (Tick)
system.cpu.dcache.WriteReq.mshrMissLatency::total  54732841989                       # number of WriteReq MSHR miss ticks (Tick)
system.cpu.dcache.WriteReq.mshrMissRate::cpu.data     0.124778                       # mshr miss rate for WriteReq accesses (Ratio)
system.cpu.dcache.WriteReq.mshrMissRate::total     0.124778                       # mshr miss rate for WriteReq accesses (Ratio)
system.cpu.dcache.WriteReq.avgMshrMissLatency::cpu.data 60146.839448                       # average WriteReq mshr miss latency ((Tick/Count))
system.cpu.dcache.WriteReq.avgMshrMissLatency::total 60146.839448                       # average WriteReq mshr miss latency ((Tick/Count))
system.cpu.dcache.power_state.pwrStateResidencyTicks::UNDEFINED  62590000000                       # Cumulative time (in ticks) in various power states (Tick)
system.cpu.dcache.tags.tagsInUse          1023.146439                       # Average ticks per tags in use ((Tick/Count))
system.cpu.dcache.tags.totalRefs              8521977                       # Total number of references to valid blocks. (Count)
system.cpu.dcache.tags.sampledRefs             912361                       # Sample count of references to valid blocks. (Count)
system.cpu.dcache.tags.avgRefs               9.340576                       # Average number of references to valid blocks. ((Count/Count))
system.cpu.dcache.tags.warmupTick              148000                       # The tick when the warmup percentage was hit. (Tick)
system.cpu.dcache.tags.occupancies::cpu.data  1023.146439                       # Average occupied blocks per tick, per requestor ((Count/Tick))
system.cpu.dcache.tags.avgOccs::cpu.data     0.999166                       # Average percentage of cache occupancy ((Ratio/Tick))
system.cpu.dcache.tags.avgOccs::total        0.999166                       # Average percentage of cache occupancy ((Ratio/Tick))
system.cpu.dcache.tags.occupanciesTaskId::1024         1024                       # Occupied blocks per task id (Count)
system.cpu.dcache.tags.ageTaskId_1024::0          150                       # Occupied blocks per task id, per block age (Count)
system.cpu.dcache.tags.ageTaskId_1024::1          873                       # Occupied blocks per task id, per block age (Count)
system.cpu.dcache.tags.ageTaskId_1024::4            1                       # Occupied blocks per task id, per block age (Count)
system.cpu.dcache.tags.ratioOccsTaskId::1024            1                       # Ratio of occupied blocks and all blocks, per task id (Ratio)
system.cpu.dcache.tags.tagAccesses           17974583                       # Number of tag accesses (Count)
system.cpu.dcache.tags.dataAccesses          17974583                       # Number of data accesses (Count)
system.cpu.dcache.tags.power_state.pwrStateResidencyTicks::UNDEFINED  62590000000                       # Cumulative time (in ticks) in various power states (Tick)
system.cpu.decode.idleCycles                   561497                       # Number of cycles decode is idle (Cycle)
system.cpu.decode.blockedCycles             122507159                       # Number of cycles decode is blocked (Cycle)
system.cpu.decode.runCycles                    812765                       # Number of cycles decode is running (Cycle)
system.cpu.decode.unblockCycles               1212532                       # Number of cycles decode is unblocking (Cycle)
system.cpu.decode.squashCycles                  23862                       # Number of cycles decode is squashing (Cycle)
system.cpu.decode.branchResolved               426436                       # Number of times decode resolved a branch (Count)
system.cpu.decode.branchMispred                   569                       # Number of times decode detected a branch misprediction (Count)
system.cpu.decode.decodedInsts               15904230                       # Number of instructions handled by decode (Count)
system.cpu.decode.squashedInsts                  2727                       # Number of squashed instructions handled by decode (Count)
system.cpu.dtb_walker_cache.blockedCycles::no_mshrs            0                       # number of cycles access was blocked (Cycle)
system.cpu.dtb_walker_cache.blockedCycles::no_targets            0                       # number of cycles access was blocked (Cycle)
system.cpu.dtb_walker_cache.blockedCauses::no_mshrs            0                       # number of times access was blocked (Count)
system.cpu.dtb_walker_cache.blockedCauses::no_targets            0                       # number of times access was blocked (Count)
system.cpu.dtb_walker_cache.avgBlocked::no_mshrs          nan                       # average number of cycles each access was blocked ((Cycle/Count))
system.cpu.dtb_walker_cache.avgBlocked::no_targets          nan                       # average number of cycles each access was blocked ((Cycle/Count))
system.cpu.dtb_walker_cache.replacements            0                       # number of replacements (Count)
system.cpu.dtb_walker_cache.power_state.pwrStateResidencyTicks::UNDEFINED  62590000000                       # Cumulative time (in ticks) in various power states (Tick)
system.cpu.dtb_walker_cache.tags.tagsInUse            0                       # Average ticks per tags in use ((Tick/Count))
system.cpu.dtb_walker_cache.tags.totalRefs            0                       # Total number of references to valid blocks. (Count)
system.cpu.dtb_walker_cache.tags.sampledRefs            0                       # Sample count of references to valid blocks. (Count)
system.cpu.dtb_walker_cache.tags.avgRefs          nan                       # Average number of references to valid blocks. ((Count/Count))
system.cpu.dtb_walker_cache.tags.warmupTick            0                       # The tick when the warmup percentage was hit. (Tick)
system.cpu.dtb_walker_cache.tags.tagAccesses            0                       # Number of tag accesses (Count)
system.cpu.dtb_walker_cache.tags.dataAccesses            0                       # Number of data accesses (Count)
system.cpu.dtb_walker_cache.tags.power_state.pwrStateResidencyTicks::UNDEFINED  62590000000                       # Cumulative time (in ticks) in various power states (Tick)
system.cpu.fetch.icacheStallCycles            1722446                       # Number of cycles fetch is stalled on an Icache miss (Cycle)
system.cpu.fetch.insts                       11421170                       # Number of instructions fetch has processed (Count)
system.cpu.fetch.branches                      508373                       # Number of branches that fetch encountered (Count)
system.cpu.fetch.predictedBranches             457788                       # Number of branches that fetch has predicted taken (Count)
system.cpu.fetch.cycles                     123367616                       # Number of cycles fetch has run and was not squashing or blocked (Cycle)
system.cpu.fetch.squashCycles                   48824                       # Number of cycles fetch has spent squashing (Cycle)
system.cpu.fetch.miscStallCycles                  406                       # Number of cycles fetch has spent waiting on interrupts, or bad addresses, or out of MSHRs (Cycle)
system.cpu.fetch.pendingTrapStallCycles          2920                       # Number of stall cycles due to pending traps (Cycle)
system.cpu.fetch.icacheWaitRetryStallCycles           15                       # Number of stall cycles due to full MSHR (Cycle)
system.cpu.fetch.cacheLines                   1683954                       # Number of cache lines fetched (Count)
system.cpu.fetch.icacheSquashes                  3015                       # Number of outstanding Icache misses that were squashed (Count)
system.cpu.fetch.nisnDist::samples          125117815                       # Number of instructions fetched each cycle (Total) (Count)
system.cpu.fetch.nisnDist::mean              0.132887                       # Number of instructions fetched each cycle (Total) (Count)
system.cpu.fetch.nisnDist::stdev             0.929446                       # Number of instructions fetched each cycle (Total) (Count)
system.cpu.fetch.nisnDist::underflows               0      0.00%      0.00% # Number of instructions fetched each cycle (Total) (Count)
system.cpu.fetch.nisnDist::0                121946128     97.47%     97.47% # Number of instructions fetched each cycle (Total) (Count)
system.cpu.fetch.nisnDist::1                   309017      0.25%     97.71% # Number of instructions fetched each cycle (Total) (Count)
system.cpu.fetch.nisnDist::2                   549554      0.44%     98.15% # Number of instructions fetched each cycle (Total) (Count)
system.cpu.fetch.nisnDist::3                   183114      0.15%     98.30% # Number of instructions fetched each cycle (Total) (Count)
system.cpu.fetch.nisnDist::4                   316670      0.25%     98.55% # Number of instructions fetched each cycle (Total) (Count)
system.cpu.fetch.nisnDist::5                   206015      0.16%     98.72% # Number of instructions fetched each cycle (Total) (Count)
system.cpu.fetch.nisnDist::6                   174176      0.14%     98.85% # Number of instructions fetched each cycle (Total) (Count)
system.cpu.fetch.nisnDist::7                   137914      0.11%     98.96% # Number of instructions fetched each cycle (Total) (Count)
system.cpu.fetch.nisnDist::8                  1295227      1.04%    100.00% # Number of instructions fetched each cycle (Total) (Count)
system.cpu.fetch.nisnDist::overflows                0      0.00%    100.00% # Number of instructions fetched each cycle (Total) (Count)
system.cpu.fetch.nisnDist::min_value                0                       # Number of instructions fetched each cycle (Total) (Count)
system.cpu.fetch.nisnDist::max_value                8                       # Number of instructions fetched each cycle (Total) (Count)
system.cpu.fetch.nisnDist::total            125117815                       # Number of instructions fetched each cycle (Total) (Count)
system.cpu.fetch.branchRate                  0.004061                       # Number of branch fetches per cycle (Ratio)
system.cpu.fetch.rate                        0.091238                       # Number of inst fetches per cycle ((Count/Cycle))
system.cpu.icache.demandHits::cpu.inst        1682247                       # number of demand (read+write) hits (Count)
system.cpu.icache.demandHits::total           1682247                       # number of demand (read+write) hits (Count)
system.cpu.icache.overallHits::cpu.inst       1682247                       # number of overall hits (Count)
system.cpu.icache.overallHits::total          1682247                       # number of overall hits (Count)
system.cpu.icache.demandMisses::cpu.inst         1707                       # number of demand (read+write) misses (Count)
system.cpu.icache.demandMisses::total            1707                       # number of demand (read+write) misses (Count)
system.cpu.icache.overallMisses::cpu.inst         1707                       # number of overall misses (Count)
system.cpu.icache.overallMisses::total           1707                       # number of overall misses (Count)
system.cpu.icache.demandMissLatency::cpu.inst     95593500                       # number of demand (read+write) miss ticks (Tick)
system.cpu.icache.demandMissLatency::total     95593500                       # number of demand (read+write) miss ticks (Tick)
system.cpu.icache.overallMissLatency::cpu.inst     95593500                       # number of overall miss ticks (Tick)
system.cpu.icache.overallMissLatency::total     95593500                       # number of overall miss ticks (Tick)
system.cpu.icache.demandAccesses::cpu.inst      1683954                       # number of demand (read+write) accesses (Count)
system.cpu.icache.demandAccesses::total       1683954                       # number of demand (read+write) accesses (Count)
system.cpu.icache.overallAccesses::cpu.inst      1683954                       # number of overall (read+write) accesses (Count)
system.cpu.icache.overallAccesses::total      1683954                       # number of overall (read+write) accesses (Count)
system.cpu.icache.demandMissRate::cpu.inst     0.001014                       # miss rate for demand accesses (Ratio)
system.cpu.icache.demandMissRate::total      0.001014                       # miss rate for demand accesses (Ratio)
system.cpu.icache.overallMissRate::cpu.inst     0.001014                       # miss rate for overall accesses (Ratio)
system.cpu.icache.overallMissRate::total     0.001014                       # miss rate for overall accesses (Ratio)
system.cpu.icache.demandAvgMissLatency::cpu.inst 56000.878735                       # average overall miss latency in ticks ((Tick/Count))
system.cpu.icache.demandAvgMissLatency::total 56000.878735                       # average overall miss latency in ticks ((Tick/Count))
system.cpu.icache.overallAvgMissLatency::cpu.inst 56000.878735                       # average overall miss latency ((Tick/Count))
system.cpu.icache.overallAvgMissLatency::total 56000.878735                       # average overall miss latency ((Tick/Count))
system.cpu.icache.blockedCycles::no_mshrs           27                       # number of cycles access was blocked (Cycle)
system.cpu.icache.blockedCycles::no_targets            0                       # number of cycles access was blocked (Cycle)
system.cpu.icache.blockedCauses::no_mshrs            1                       # number of times access was blocked (Count)
system.cpu.icache.blockedCauses::no_targets            0                       # number of times access was blocked (Count)
system.cpu.icache.avgBlocked::no_mshrs             27                       # average number of cycles each access was blocked ((Cycle/Count))
system.cpu.icache.avgBlocked::no_targets          nan                       # average number of cycles each access was blocked ((Cycle/Count))
system.cpu.icache.writebacks::writebacks          583                       # number of writebacks (Count)
system.cpu.icache.writebacks::total               583                       # number of writebacks (Count)
system.cpu.icache.demandMshrHits::cpu.inst          616                       # number of demand (read+write) MSHR hits (Count)
system.cpu.icache.demandMshrHits::total           616                       # number of demand (read+write) MSHR hits (Count)
system.cpu.icache.overallMshrHits::cpu.inst          616                       # number of overall MSHR hits (Count)
system.cpu.icache.overallMshrHits::total          616                       # number of overall MSHR hits (Count)
system.cpu.icache.demandMshrMisses::cpu.inst         1091                       # number of demand (read+write) MSHR misses (Count)
system.cpu.icache.demandMshrMisses::total         1091                       # number of demand (read+write) MSHR misses (Count)
system.cpu.icache.overallMshrMisses::cpu.inst         1091                       # number of overall MSHR misses (Count)
system.cpu.icache.overallMshrMisses::total         1091                       # number of overall MSHR misses (Count)
system.cpu.icache.demandMshrMissLatency::cpu.inst     66802000                       # number of demand (read+write) MSHR miss ticks (Tick)
system.cpu.icache.demandMshrMissLatency::total     66802000                       # number of demand (read+write) MSHR miss ticks (Tick)
system.cpu.icache.overallMshrMissLatency::cpu.inst     66802000                       # number of overall MSHR miss ticks (Tick)
system.cpu.icache.overallMshrMissLatency::total     66802000                       # number of overall MSHR miss ticks (Tick)
system.cpu.icache.demandMshrMissRate::cpu.inst     0.000648                       # mshr miss ratio for demand accesses (Ratio)
system.cpu.icache.demandMshrMissRate::total     0.000648                       # mshr miss ratio for demand accesses (Ratio)
system.cpu.icache.overallMshrMissRate::cpu.inst     0.000648                       # mshr miss ratio for overall accesses (Ratio)
system.cpu.icache.overallMshrMissRate::total     0.000648                       # mshr miss ratio for overall accesses (Ratio)
system.cpu.icache.demandAvgMshrMissLatency::cpu.inst 61230.064161                       # average overall mshr miss latency ((Tick/Count))
system.cpu.icache.demandAvgMshrMissLatency::total 61230.064161                       # average overall mshr miss latency ((Tick/Count))
system.cpu.icache.overallAvgMshrMissLatency::cpu.inst 61230.064161                       # average overall mshr miss latency ((Tick/Count))
system.cpu.icache.overallAvgMshrMissLatency::total 61230.064161                       # average overall mshr miss latency ((Tick/Count))
system.cpu.icache.replacements                    583                       # number of replacements (Count)
system.cpu.icache.ReadReq.hits::cpu.inst      1682247                       # number of ReadReq hits (Count)
system.cpu.icache.ReadReq.hits::total         1682247                       # number of ReadReq hits (Count)
system.cpu.icache.ReadReq.misses::cpu.inst         1707                       # number of ReadReq misses (Count)
system.cpu.icache.ReadReq.misses::total          1707                       # number of ReadReq misses (Count)
system.cpu.icache.ReadReq.missLatency::cpu.inst     95593500                       # number of ReadReq miss ticks (Tick)
system.cpu.icache.ReadReq.missLatency::total     95593500                       # number of ReadReq miss ticks (Tick)
system.cpu.icache.ReadReq.accesses::cpu.inst      1683954                       # number of ReadReq accesses(hits+misses) (Count)
system.cpu.icache.ReadReq.accesses::total      1683954                       # number of ReadReq accesses(hits+misses) (Count)
system.cpu.icache.ReadReq.missRate::cpu.inst     0.001014                       # miss rate for ReadReq accesses (Ratio)
system.cpu.icache.ReadReq.missRate::total     0.001014                       # miss rate for ReadReq accesses (Ratio)
system.cpu.icache.ReadReq.avgMissLatency::cpu.inst 56000.878735                       # average ReadReq miss latency ((Tick/Count))
system.cpu.icache.ReadReq.avgMissLatency::total 56000.878735                       # average ReadReq miss latency ((Tick/Count))
system.cpu.icache.ReadReq.mshrHits::cpu.inst          616                       # number of ReadReq MSHR hits (Count)
system.cpu.icache.ReadReq.mshrHits::total          616                       # number of ReadReq MSHR hits (Count)
system.cpu.icache.ReadReq.mshrMisses::cpu.inst         1091                       # number of ReadReq MSHR misses (Count)
system.cpu.icache.ReadReq.mshrMisses::total         1091                       # number of ReadReq MSHR misses (Count)
system.cpu.icache.ReadReq.mshrMissLatency::cpu.inst     66802000                       # number of ReadReq MSHR miss ticks (Tick)
system.cpu.icache.ReadReq.mshrMissLatency::total     66802000                       # number of ReadReq MSHR miss ticks (Tick)
system.cpu.icache.ReadReq.mshrMissRate::cpu.inst     0.000648                       # mshr miss rate for ReadReq accesses (Ratio)
system.cpu.icache.ReadReq.mshrMissRate::total     0.000648                       # mshr miss rate for ReadReq accesses (Ratio)
system.cpu.icache.ReadReq.avgMshrMissLatency::cpu.inst 61230.064161                       # average ReadReq mshr miss latency ((Tick/Count))
system.cpu.icache.ReadReq.avgMshrMissLatency::total 61230.064161                       # average ReadReq mshr miss latency ((Tick/Count))
system.cpu.icache.power_state.pwrStateResidencyTicks::UNDEFINED  62590000000                       # Cumulative time (in ticks) in various power states (Tick)
system.cpu.icache.tags.tagsInUse           507.719370                       # Average ticks per tags in use ((Tick/Count))
system.cpu.icache.tags.totalRefs              1683338                       # Total number of references to valid blocks. (Count)
system.cpu.icache.tags.sampledRefs               1091                       # Sample count of references to valid blocks. (Count)
system.cpu.icache.tags.avgRefs            1542.931256                       # Average number of references to valid blocks. ((Count/Count))
system.cpu.icache.tags.warmupTick               77000                       # The tick when the warmup percentage was hit. (Tick)
system.cpu.icache.tags.occupancies::cpu.inst   507.719370                       # Average occupied blocks per tick, per requestor ((Count/Tick))
system.cpu.icache.tags.avgOccs::cpu.inst     0.991639                       # Average percentage of cache occupancy ((Ratio/Tick))
system.cpu.icache.tags.avgOccs::total        0.991639                       # Average percentage of cache occupancy ((Ratio/Tick))
system.cpu.icache.tags.occupanciesTaskId::1024          508                       # Occupied blocks per task id (Count)
system.cpu.icache.tags.ageTaskId_1024::4          508                       # Occupied blocks per task id, per block age (Count)
system.cpu.icache.tags.ratioOccsTaskId::1024     0.992188                       # Ratio of occupied blocks and all blocks, per task id (Ratio)
system.cpu.icache.tags.tagAccesses            3368999                       # Number of tag accesses (Count)
system.cpu.icache.tags.dataAccesses           3368999                       # Number of data accesses (Count)
system.cpu.icache.tags.power_state.pwrStateResidencyTicks::UNDEFINED  62590000000                       # Cumulative time (in ticks) in various power states (Tick)
system.cpu.iew.idleCycles                           0                       # Number of cycles IEW is idle (Cycle)
system.cpu.iew.squashCycles                     23862                       # Number of cycles IEW is squashing (Cycle)
system.cpu.iew.blockCycles                     193471                       # Number of cycles IEW is blocking (Cycle)
system.cpu.iew.unblockCycles                 50427289                       # Number of cycles IEW is unblocking (Cycle)
system.cpu.iew.dispatchedInsts               15722108                       # Number of instructions dispatched to IQ (Count)
system.cpu.iew.dispSquashedInsts                  627                       # Number of squashed instructions skipped by dispatch (Count)
system.cpu.iew.dispLoadInsts                  1261253                       # Number of dispatched load instructions (Count)
system.cpu.iew.dispStoreInsts                 7760641                       # Number of dispatched store instructions (Count)
system.cpu.iew.dispNonSpecInsts                    73                       # Number of dispatched non-speculative instructions (Count)
system.cpu.iew.iqFullEvents                       458                       # Number of times the IQ has become full, causing a stall (Count)
system.cpu.iew.lsqFullEvents                 50426419                       # Number of times the LSQ has become full, causing a stall (Count)
system.cpu.iew.memOrderViolationEvents             90                       # Number of memory order violations (Count)
system.cpu.iew.predictedTakenIncorrect           2447                       # Number of branches that were predicted taken incorrectly (Count)
system.cpu.iew.predictedNotTakenIncorrect         4201                       # Number of branches that were predicted not taken incorrectly (Count)
system.cpu.iew.branchMispredicts                 6648                       # Number of branch mispredicts detected at execute (Count)
system.cpu.iew.mispredictedLVP                   5195                       # mispredictedLVP (Count)
system.cpu.iew.LvpCorrect                     1189944                       # LvpCorrect (Count)
system.cpu.iew.instsToCommit                 15566394                       # Cumulative count of insts sent to commit (Count)
system.cpu.iew.writebackCount                15277363                       # Cumulative count of insts written-back (Count)
system.cpu.iew.producerInst                   5049940                       # Number of instructions producing a value (Count)
system.cpu.iew.consumerInst                   6113182                       # Number of instructions consuming a value (Count)
system.cpu.iew.wbRate                        0.122043                       # Insts written-back per cycle ((Count/Cycle))
system.cpu.iew.wbFanout                      0.826074                       # Average fanout of values written-back ((Count/Count))
system.cpu.interrupts.clk_domain.clock           8000                       # Clock period in ticks (Tick)
system.cpu.itb_walker_cache.blockedCycles::no_mshrs            0                       # number of cycles access was blocked (Cycle)
system.cpu.itb_walker_cache.blockedCycles::no_targets            0                       # number of cycles access was blocked (Cycle)
system.cpu.itb_walker_cache.blockedCauses::no_mshrs            0                       # number of times access was blocked (Count)
system.cpu.itb_walker_cache.blockedCauses::no_targets            0                       # number of times access was blocked (Count)
system.cpu.itb_walker_cache.avgBlocked::no_mshrs          nan                       # average number of cycles each access was blocked ((Cycle/Count))
system.cpu.itb_walker_cache.avgBlocked::no_targets          nan                       # average number of cycles each access was blocked ((Cycle/Count))
system.cpu.itb_walker_cache.replacements            0                       # number of replacements (Count)
system.cpu.itb_walker_cache.power_state.pwrStateResidencyTicks::UNDEFINED  62590000000                       # Cumulative time (in ticks) in various power states (Tick)
system.cpu.itb_walker_cache.tags.tagsInUse            0                       # Average ticks per tags in use ((Tick/Count))
system.cpu.itb_walker_cache.tags.totalRefs            0                       # Total number of references to valid blocks. (Count)
system.cpu.itb_walker_cache.tags.sampledRefs            0                       # Sample count of references to valid blocks. (Count)
system.cpu.itb_walker_cache.tags.avgRefs          nan                       # Average number of references to valid blocks. ((Count/Count))
system.cpu.itb_walker_cache.tags.warmupTick            0                       # The tick when the warmup percentage was hit. (Tick)
system.cpu.itb_walker_cache.tags.tagAccesses            0                       # Number of tag accesses (Count)
system.cpu.itb_walker_cache.tags.dataAccesses            0                       # Number of data accesses (Count)
system.cpu.itb_walker_cache.tags.power_state.pwrStateResidencyTicks::UNDEFINED  62590000000                       # Cumulative time (in ticks) in various power states (Tick)
system.cpu.lsq0.forwLoads                        3550                       # Number of loads that had data forwarded from stores (Count)
system.cpu.lsq0.squashedLoads                  122961                       # Number of loads squashed (Count)
system.cpu.lsq0.ignoredResponses                   63                       # Number of memory responses ignored because the instruction is squashed (Count)
system.cpu.lsq0.memOrderViolation                  90                       # Number of memory ordering violations (Count)
system.cpu.lsq0.squashedStores                 467764                       # Number of stores squashed (Count)
system.cpu.lsq0.rescheduledLoads                    3                       # Number of loads that were rescheduled (Count)
system.cpu.lsq0.blockedByCache                    265                       # Number of times an access to memory failed due to the cache being blocked (Count)
system.cpu.lsq0.loadToUse::samples            1138290                       # Distribution of cycle latency between the first time a load is issued and its completion (Unspecified)
system.cpu.lsq0.loadToUse::mean              3.599562                       # Distribution of cycle latency between the first time a load is issued and its completion (Unspecified)
system.cpu.lsq0.loadToUse::stdev             8.973110                       # Distribution of cycle latency between the first time a load is issued and its completion (Unspecified)
system.cpu.lsq0.loadToUse::0-9                1132545     99.50%     99.50% # Distribution of cycle latency between the first time a load is issued and its completion (Unspecified)
system.cpu.lsq0.loadToUse::10-19                  262      0.02%     99.52% # Distribution of cycle latency between the first time a load is issued and its completion (Unspecified)
system.cpu.lsq0.loadToUse::20-29                  148      0.01%     99.53% # Distribution of cycle latency between the first time a load is issued and its completion (Unspecified)
system.cpu.lsq0.loadToUse::30-39                   98      0.01%     99.54% # Distribution of cycle latency between the first time a load is issued and its completion (Unspecified)
system.cpu.lsq0.loadToUse::40-49                   99      0.01%     99.55% # Distribution of cycle latency between the first time a load is issued and its completion (Unspecified)
system.cpu.lsq0.loadToUse::50-59                   87      0.01%     99.56% # Distribution of cycle latency between the first time a load is issued and its completion (Unspecified)
system.cpu.lsq0.loadToUse::60-69                  189      0.02%     99.57% # Distribution of cycle latency between the first time a load is issued and its completion (Unspecified)
system.cpu.lsq0.loadToUse::70-79                  173      0.02%     99.59% # Distribution of cycle latency between the first time a load is issued and its completion (Unspecified)
[...]
system.mem_ctrls.dram.perBankWrBursts::1        56785                       # Per bank write bursts (Count)
system.mem_ctrls.dram.perBankWrBursts::2        56776                       # Per bank write bursts (Count)
system.mem_ctrls.dram.perBankWrBursts::3        56754                       # Per bank write bursts (Count)
system.mem_ctrls.dram.perBankWrBursts::4        56864                       # Per bank write bursts (Count)
system.mem_ctrls.dram.perBankWrBursts::5        56881                       # Per bank write bursts (Count)
system.mem_ctrls.dram.perBankWrBursts::6        56802                       # Per bank write bursts (Count)
system.mem_ctrls.dram.perBankWrBursts::7        56916                       # Per bank write bursts (Count)
system.mem_ctrls.dram.perBankWrBursts::8        56929                       # Per bank write bursts (Count)
system.mem_ctrls.dram.perBankWrBursts::9        56881                       # Per bank write bursts (Count)
system.mem_ctrls.dram.perBankWrBursts::10        56920                       # Per bank write bursts (Count)
system.mem_ctrls.dram.perBankWrBursts::11        56868                       # Per bank write bursts (Count)
system.mem_ctrls.dram.perBankWrBursts::12        56848                       # Per bank write bursts (Count)
system.mem_ctrls.dram.perBankWrBursts::13        56855                       # Per bank write bursts (Count)
system.mem_ctrls.dram.perBankWrBursts::14        56863                       # Per bank write bursts (Count)
system.mem_ctrls.dram.perBankWrBursts::15        56882                       # Per bank write bursts (Count)
system.mem_ctrls.dram.totQLat              8747796500                       # Total ticks spent queuing (Tick)
system.mem_ctrls.dram.totBusLat            4567105000                       # Total ticks spent in databus transfers (Tick)
system.mem_ctrls.dram.totMemAccLat        25874440250                       # Total ticks spent from burst creation until serviced by the DRAM (Tick)
system.mem_ctrls.dram.avgQLat                 9576.96                       # Average queueing delay per DRAM burst ((Tick/Count))
system.mem_ctrls.dram.avgBusLat               5000.00                       # Average bus latency per DRAM burst ((Tick/Count))
system.mem_ctrls.dram.avgMemAccLat           28326.96                       # Average memory access latency per DRAM burst ((Tick/Count))
system.mem_ctrls.dram.readRowHits              848895                       # Number of row buffer hits during reads (Count)
system.mem_ctrls.dram.writeRowHits             843675                       # Number of row buffer hits during writes (Count)
system.mem_ctrls.dram.readRowHitRate            92.94                       # Row buffer hit rate for reads (Ratio)
system.mem_ctrls.dram.writeRowHitRate           92.75                       # Row buffer hit rate for writes (Ratio)
system.mem_ctrls.dram.bytesPerActivate::samples       130465                       # Bytes accessed per row activation (Byte)
system.mem_ctrls.dram.bytesPerActivate::mean   894.289932                       # Bytes accessed per row activation (Byte)
system.mem_ctrls.dram.bytesPerActivate::gmean   791.658150                       # Bytes accessed per row activation (Byte)
system.mem_ctrls.dram.bytesPerActivate::stdev   276.370483                       # Bytes accessed per row activation (Byte)
system.mem_ctrls.dram.bytesPerActivate::0-127         4716      3.61%      3.61% # Bytes accessed per row activation (Byte)
system.mem_ctrls.dram.bytesPerActivate::128-255         4234      3.25%      6.86% # Bytes accessed per row activation (Byte)
system.mem_ctrls.dram.bytesPerActivate::256-383         3744      2.87%      9.73% # Bytes accessed per row activation (Byte)
system.mem_ctrls.dram.bytesPerActivate::384-511         3246      2.49%     12.22% # Bytes accessed per row activation (Byte)
system.mem_ctrls.dram.bytesPerActivate::512-639         3461      2.65%     14.87% # Bytes accessed per row activation (Byte)
system.mem_ctrls.dram.bytesPerActivate::640-767         3132      2.40%     17.27% # Bytes accessed per row activation (Byte)
system.mem_ctrls.dram.bytesPerActivate::768-895         3962      3.04%     20.31% # Bytes accessed per row activation (Byte)
system.mem_ctrls.dram.bytesPerActivate::896-1023         4162      3.19%     23.50% # Bytes accessed per row activation (Byte)
system.mem_ctrls.dram.bytesPerActivate::1024-1151        99808     76.50%    100.00% # Bytes accessed per row activation (Byte)
system.mem_ctrls.dram.bytesPerActivate::total       130465                       # Bytes accessed per row activation (Byte)
system.mem_ctrls.dram.bytesRead              58458944                       # Total bytes read (Byte)
system.mem_ctrls.dram.bytesWritten           58215360                       # Total bytes written (Byte)
system.mem_ctrls.dram.avgRdBW              933.998147                       # Average DRAM read bandwidth in MiBytes/s ((Byte/Second))
system.mem_ctrls.dram.avgWrBW              930.106407                       # Average DRAM write bandwidth in MiBytes/s ((Byte/Second))
system.mem_ctrls.dram.peakBW                 12800.00                       # Theoretical peak bandwidth in MiByte/s ((Byte/Second))
system.mem_ctrls.dram.busUtil                   14.56                       # Data bus utilization in percentage (Ratio)
system.mem_ctrls.dram.busUtilRead                7.30                       # Data bus utilization in percentage for reads (Ratio)
system.mem_ctrls.dram.busUtilWrite               7.27                       # Data bus utilization in percentage for writes (Ratio)
system.mem_ctrls.dram.pageHitRate               92.84                       # Row buffer hit rate, read and write combined (Ratio)
system.mem_ctrls.dram.power_state.pwrStateResidencyTicks::UNDEFINED  62590000000                       # Cumulative time (in ticks) in various power states (Tick)
system.mem_ctrls.dram.rank0.actEnergy       466556160                       # Energy for activate commands per rank (pJ) (Joule)
system.mem_ctrls.dram.rank0.preEnergy       247980480                       # Energy for precharge commands per rank (pJ) (Joule)
system.mem_ctrls.dram.rank0.readEnergy     3263386980                       # Energy for read commands per rank (pJ) (Joule)
system.mem_ctrls.dram.rank0.writeEnergy    2372850180                       # Energy for write commands per rank (pJ) (Joule)
system.mem_ctrls.dram.rank0.refreshEnergy 4940476320.000001                       # Energy for refresh commands per rank (pJ) (Joule)
system.mem_ctrls.dram.rank0.actBackEnergy  22753941720                       # Energy for active background per rank (pJ) (Joule)
system.mem_ctrls.dram.rank0.preBackEnergy   4873345920                       # Energy for precharge background per rank (pJ) (Joule)
system.mem_ctrls.dram.rank0.actPowerDownEnergy            0                       # Energy for active power-down per rank (pJ) (Joule)
system.mem_ctrls.dram.rank0.prePowerDownEnergy            0                       # Energy for precharge power-down per rank (pJ) (Joule)
system.mem_ctrls.dram.rank0.selfRefreshEnergy            0                       # Energy for self refresh per rank (pJ) (Joule)
system.mem_ctrls.dram.rank0.totalEnergy   38918537760                       # Total energy per rank (pJ) (Joule)
system.mem_ctrls.dram.rank0.averagePower   621.801210                       # Core power per rank (mW) (Watt)
system.mem_ctrls.dram.rank0.totalIdleTime            0                       # Total Idle time Per DRAM Rank (Tick)
system.mem_ctrls.dram.rank0.pwrStateTime::IDLE  12109823750                       # Time in different power states (Tick)
system.mem_ctrls.dram.rank0.pwrStateTime::REF   2089880000                       # Time in different power states (Tick)
system.mem_ctrls.dram.rank0.pwrStateTime::SREF            0                       # Time in different power states (Tick)
system.mem_ctrls.dram.rank0.pwrStateTime::PRE_PDN            0                       # Time in different power states (Tick)
system.mem_ctrls.dram.rank0.pwrStateTime::ACT  48390296250                       # Time in different power states (Tick)
system.mem_ctrls.dram.rank0.pwrStateTime::ACT_PDN            0                       # Time in different power states (Tick)
system.mem_ctrls.dram.rank1.actEnergy       464971080                       # Energy for activate commands per rank (pJ) (Joule)
system.mem_ctrls.dram.rank1.preEnergy       247134195                       # Energy for precharge commands per rank (pJ) (Joule)
system.mem_ctrls.dram.rank1.readEnergy     3258438960                       # Energy for read commands per rank (pJ) (Joule)
system.mem_ctrls.dram.rank1.writeEnergy    2375340120                       # Energy for write commands per rank (pJ) (Joule)
system.mem_ctrls.dram.rank1.refreshEnergy 4940476320.000001                       # Energy for refresh commands per rank (pJ) (Joule)
system.mem_ctrls.dram.rank1.actBackEnergy  22778280150                       # Energy for active background per rank (pJ) (Joule)
system.mem_ctrls.dram.rank1.preBackEnergy   4852850400                       # Energy for precharge background per rank (pJ) (Joule)
system.mem_ctrls.dram.rank1.actPowerDownEnergy            0                       # Energy for active power-down per rank (pJ) (Joule)
system.mem_ctrls.dram.rank1.prePowerDownEnergy            0                       # Energy for precharge power-down per rank (pJ) (Joule)
system.mem_ctrls.dram.rank1.selfRefreshEnergy            0                       # Energy for self refresh per rank (pJ) (Joule)
system.mem_ctrls.dram.rank1.totalEnergy   38917491225                       # Total energy per rank (pJ) (Joule)
system.mem_ctrls.dram.rank1.averagePower   621.784490                       # Core power per rank (mW) (Watt)
system.mem_ctrls.dram.rank1.totalIdleTime            0                       # Total Idle time Per DRAM Rank (Tick)
system.mem_ctrls.dram.rank1.pwrStateTime::IDLE  12054240250                       # Time in different power states (Tick)
system.mem_ctrls.dram.rank1.pwrStateTime::REF   2089880000                       # Time in different power states (Tick)
system.mem_ctrls.dram.rank1.pwrStateTime::SREF            0                       # Time in different power states (Tick)
system.mem_ctrls.dram.rank1.pwrStateTime::PRE_PDN            0                       # Time in different power states (Tick)
system.mem_ctrls.dram.rank1.pwrStateTime::ACT  48445879750                       # Time in different power states (Tick)
system.mem_ctrls.dram.rank1.pwrStateTime::ACT_PDN            0                       # Time in different power states (Tick)
system.mem_ctrls.power_state.pwrStateResidencyTicks::UNDEFINED  62590000000                       # Cumulative time (in ticks) in various power states (Tick)
system.membus.transDist::ReadResp                3465                       # Transaction distribution (Count)
system.membus.transDist::WritebackDirty        909071                       # Transaction distribution (Count)
system.membus.transDist::WritebackClean           583                       # Transaction distribution (Count)
system.membus.transDist::CleanEvict              2266                       # Transaction distribution (Count)
system.membus.transDist::ReadExReq             909987                       # Transaction distribution (Count)
system.membus.transDist::ReadExResp            909987                       # Transaction distribution (Count)
system.membus.transDist::ReadCleanReq            1091                       # Transaction distribution (Count)
system.membus.transDist::ReadSharedReq           2374                       # Transaction distribution (Count)
system.membus.pktCount_system.cpu.icache.mem_side_port::system.mem_ctrls.port         2765                       # Packet count per connected requestor and responder (Count)
system.membus.pktCount_system.cpu.icache.mem_side_port::total         2765                       # Packet count per connected requestor and responder (Count)
system.membus.pktCount_system.cpu.dcache.mem_side_port::system.mem_ctrls.port      2736059                       # Packet count per connected requestor and responder (Count)
system.membus.pktCount_system.cpu.dcache.mem_side_port::total      2736059                       # Packet count per connected requestor and responder (Count)
system.membus.pktCount::total                 2738824                       # Packet count per connected requestor and responder (Count)
system.membus.pktSize_system.cpu.icache.mem_side_port::system.mem_ctrls.port       107136                       # Cumulative packet size per connected requestor and responder (Byte)
system.membus.pktSize_system.cpu.icache.mem_side_port::total       107136                       # Cumulative packet size per connected requestor and responder (Byte)
system.membus.pktSize_system.cpu.dcache.mem_side_port::system.mem_ctrls.port    116571648                       # Cumulative packet size per connected requestor and responder (Byte)
system.membus.pktSize_system.cpu.dcache.mem_side_port::total    116571648                       # Cumulative packet size per connected requestor and responder (Byte)
system.membus.pktSize::total                116678784                       # Cumulative packet size per connected requestor and responder (Byte)
system.membus.snoops                                0                       # Total snoops (Count)
system.membus.snoopTraffic                          0                       # Total snoop traffic (Byte)
system.membus.snoopFanout::samples             913452                       # Request fanout histogram (Count)
system.membus.snoopFanout::mean              0.000008                       # Request fanout histogram (Count)
system.membus.snoopFanout::stdev             0.002768                       # Request fanout histogram (Count)
system.membus.snoopFanout::underflows               0      0.00%      0.00% # Request fanout histogram (Count)
system.membus.snoopFanout::0                   913445    100.00%    100.00% # Request fanout histogram (Count)
system.membus.snoopFanout::1                        7      0.00%    100.00% # Request fanout histogram (Count)
system.membus.snoopFanout::2                        0      0.00%    100.00% # Request fanout histogram (Count)
system.membus.snoopFanout::3                        0      0.00%    100.00% # Request fanout histogram (Count)
system.membus.snoopFanout::4                        0      0.00%    100.00% # Request fanout histogram (Count)
system.membus.snoopFanout::overflows                0      0.00%    100.00% # Request fanout histogram (Count)
system.membus.snoopFanout::min_value                0                       # Request fanout histogram (Count)
system.membus.snoopFanout::max_value                1                       # Request fanout histogram (Count)
system.membus.snoopFanout::total               913452                       # Request fanout histogram (Count)
system.membus.power_state.pwrStateResidencyTicks::UNDEFINED  62590000000                       # Cumulative time (in ticks) in various power states (Tick)
system.membus.reqLayer2.occupancy          5608251000                       # Layer occupancy (ticks) (Tick)
system.membus.reqLayer2.utilization               0.1                       # Layer utilization (Ratio)
system.membus.respLayer1.occupancy            5783999                       # Layer occupancy (ticks) (Tick)
system.membus.respLayer1.utilization              0.0                       # Layer utilization (Ratio)
system.membus.respLayer2.occupancy         4804390500                       # Layer occupancy (ticks) (Tick)
system.membus.respLayer2.utilization              0.1                       # Layer utilization (Ratio)
system.membus.snoop_filter.totRequests        1825372                       # Total number of requests made to the snoop filter. (Count)
system.membus.snoop_filter.hitSingleRequests       911920                       # Number of requests hitting in the snoop filter with a single holder of the requested data. (Count)
system.membus.snoop_filter.hitMultiRequests            7                       # Number of requests hitting in the snoop filter with multiple (>1) holders of the requested data. (Count)
system.membus.snoop_filter.totSnoops                0                       # Total number of snoops made to the snoop filter. (Count)
system.membus.snoop_filter.hitSingleSnoops            0                       # Number of snoops hitting in the snoop filter with a single holder of the requested data. (Count)
system.membus.snoop_filter.hitMultiSnoops            0                       # Number of snoops hitting in the snoop filter with multiple (>1) holders of the requested data. (Count)
system.voltage_domain.voltage                       1                       # Voltage in Volts (Volt)
system.workload.inst.arm                            0                       # number of arm instructions executed (Count)
system.workload.inst.quiesce                        0                       # number of quiesce instructions executed (Count)
system.cpu.loadValPred.constant_verification_unit.constLoadHits      1174718                       # Number of loads marked constant that hit in the CVU CAM (Unspecified)
system.cpu.loadValPred.constant_verification_unit.constLoadMisses         8913                       # Number of loads marked constant that missed in the CVU CAM (Unspecified)
system.cpu.loadValPred.constant_verification_unit.numCAMReplacements         6376                       # Number of CVU CAM entries replaced (Unspecified)
system.cpu.loadValPred.constant_verification_unit.numLoadAccesses      1183631                       # Number of loads marked constant which accessed the CVU (Unspecified)
system.cpu.loadValPred.constant_verification_unit.numStoreAccesses      7470720                       # Number of store instructions which accessed the CVU (Unspecified)
system.cpu.loadValPred.constant_verification_unit.numStoreHits         2660                       # Number of stores that hit in the CVU CAM (Unspecified)
system.cpu.loadValPred.constant_verification_unit.numStoreMisses      7468060                       # Number of stores that missed in the CVU CAM (Unspecified)
system.cpu.loadValPred.correctTotal           1189944                       # Number predictions corrects for predictable verification (Unspecified)
system.cpu.loadValPred.numConstLoads          1186319                       # Number of loads classified as constant (Unspecified)
system.cpu.loadValPred.numConstLoadsCorrect      1174718                       # Number of constant loads correctly predicted (Unspecified)
system.cpu.loadValPred.numConstLoadsMispredicted         8913                       # Number of constant loads incorrectly predicted (Unspecified)
system.cpu.loadValPred.numConstValOne             316                       # Number of constant loads with value 1 (Unspecified)
system.cpu.loadValPred.numConstValZero           2145                       # Number of constant loads with value 0 (Unspecified)
system.cpu.loadValPred.numPredictableLoads        13150                       # Number of loads classified as predictable (Unspecified)
system.cpu.loadValPred.numPredictableLoadsCorrect         8859                       # Number of loads correctly classified as predictable (Unspecified)
system.cpu.loadValPred.numPredictableLoadsIncorrect         2649                       # Number of loads incorrectly classified as predictable (Unspecified)
system.cpu.loadValPred.totalLoads             1242417                       # Total loads processed by the Load value predictor (Unspecified)
system.cpu.loadValPred.valueLocalityNumerator      1199103                       # Number predictions corrects (Unspecified)

---------- End Simulation Statistics   ----------
