
---------- Begin Simulation Statistics ----------
simSeconds                                   0.003300                       # Number of seconds simulated (Second)
simTicks                                   3300276000                       # Number of ticks simulated (Tick)
finalTick                                  3300276000                       # Number of ticks from beginning of simulation (restored from checkpoints and never reset) (Tick)
simFreq                                  1000000000000                       # The number of ticks per simulated second ((Tick/Second))
hostSeconds                                    101.11                       # Real time elapsed on the host (Second)
hostTickRate                                 32639983                       # The number of ticks simulated per host second (ticks/s) ((Tick/Second))
hostMemory                                    8722528                       # Number of bytes of host memory used (Byte)
simInsts                                     10000004                       # Number of instructions simulated (Count)
simOps                                       18302657                       # Number of ops (including micro ops) simulated (Count)
hostInstRate                                    98901                       # Simulator instruction rate (inst/s) ((Count/Second))
hostOpRate                                     181014                       # Simulator op (including micro ops) rate (op/s) ((Count/Second))
system.clk_domain.clock                          1000                       # Clock period in ticks (Tick)
system.cpu.numCycles                          6600553                       # Number of cpu cycles simulated (Cycle)
system.cpu.numWorkItemsStarted                      0                       # Number of work items this cpu started (Count)
system.cpu.numWorkItemsCompleted                    0                       # Number of work items this cpu completed (Count)
system.cpu.instsAdded                        20007918                       # Number of instructions added to the IQ (excludes non-spec) (Count)
system.cpu.nonSpecInstsAdded                      170                       # Number of non-speculative instructions added to the IQ (Count)
system.cpu.instsIssued                       19325246                       # Number of instructions issued (Count)
system.cpu.squashedInstsIssued                   3210                       # Number of squashed instructions issued (Count)
system.cpu.squashedInstsExamined              1705315                       # Number of squashed instructions iterated over during squash; mainly for profiling (Count)
system.cpu.squashedOperandsExamined           4060918                       # Number of squashed operands that are examined and possibly removed from graph (Count)
system.cpu.squashedNonSpecRemoved                  89                       # Number of squashed non-spec instructions that were removed (Count)
system.cpu.numIssuedDist::samples             6556891                       # Number of insts issued each cycle (Count)
system.cpu.numIssuedDist::mean               2.947318                       # Number of insts issued each cycle (Count)
system.cpu.numIssuedDist::stdev              2.104727                       # Number of insts issued each cycle (Count)
system.cpu.numIssuedDist::underflows                0      0.00%      0.00% # Number of insts issued each cycle (Count)
system.cpu.numIssuedDist::0                   1037562     15.82%     15.82% # Number of insts issued each cycle (Count)
system.cpu.numIssuedDist::1                   1092967     16.67%     32.49% # Number of insts issued each cycle (Count)
system.cpu.numIssuedDist::2                    728521     11.11%     43.60% # Number of insts issued each cycle (Count)
system.cpu.numIssuedDist::3                    857732     13.08%     56.69% # Number of insts issued each cycle (Count)
system.cpu.numIssuedDist::4                   1110266     16.93%     73.62% # Number of insts issued each cycle (Count)
system.cpu.numIssuedDist::5                   1078885     16.45%     90.07% # Number of insts issued each cycle (Count)
system.cpu.numIssuedDist::6                    248111      3.78%     93.86% # Number of insts issued each cycle (Count)
system.cpu.numIssuedDist::7                    344890      5.26%     99.12% # Number of insts issued each cycle (Count)
system.cpu.numIssuedDist::8                     57957      0.88%    100.00% # Number of insts issued each cycle (Count)
system.cpu.numIssuedDist::overflows                 0      0.00%    100.00% # Number of insts issued each cycle (Count)
system.cpu.numIssuedDist::min_value                 0                       # Number of insts issued each cycle (Count)
system.cpu.numIssuedDist::max_value                 8                       # Number of insts issued each cycle (Count)
system.cpu.numIssuedDist::total               6556891                       # Number of insts issued each cycle (Count)
system.cpu.statFuBusy::No_OpClass                   0      0.00%      0.00% # attempts to use FU when none available (Count)
system.cpu.statFuBusy::IntAlu                   24383      9.78%      9.78% # attempts to use FU when none available (Count)
system.cpu.statFuBusy::IntMult                      0      0.00%      9.78% # attempts to use FU when none available (Count)
system.cpu.statFuBusy::IntDiv                       0      0.00%      9.78% # attempts to use FU when none available (Count)
system.cpu.statFuBusy::FloatAdd                     0      0.00%      9.78% # attempts to use FU when none available (Count)
system.cpu.statFuBusy::FloatCmp                     0      0.00%      9.78% # attempts to use FU when none available (Count)
system.cpu.statFuBusy::FloatCvt                     2      0.00%      9.78% # attempts to use FU when none available (Count)
system.cpu.statFuBusy::FloatMult                    0      0.00%      9.78% # attempts to use FU when none available (Count)
system.cpu.statFuBusy::FloatMultAcc                 0      0.00%      9.78% # attempts to use FU when none available (Count)
system.cpu.statFuBusy::FloatDiv                     0      0.00%      9.78% # attempts to use FU when none available (Count)
system.cpu.statFuBusy::FloatMisc                    0      0.00%      9.78% # attempts to use FU when none available (Count)
system.cpu.statFuBusy::FloatSqrt                    0      0.00%      9.78% # attempts to use FU when none available (Count)
system.cpu.statFuBusy::SimdAdd                      0      0.00%      9.78% # attempts to use FU when none available (Count)
system.cpu.statFuBusy::SimdAddAcc                   0      0.00%      9.78% # attempts to use FU when none available (Count)
system.cpu.statFuBusy::SimdAlu                      0      0.00%      9.78% # attempts to use FU when none available (Count)
system.cpu.statFuBusy::SimdCmp                      0      0.00%      9.78% # attempts to use FU when none available (Count)
system.cpu.statFuBusy::SimdCvt                      0      0.00%      9.78% # attempts to use FU when none available (Count)
system.cpu.statFuBusy::SimdMisc                     0      0.00%      9.78% # attempts to use FU when none available (Count)
system.cpu.statFuBusy::SimdMult                     0      0.00%      9.78% # attempts to use FU when none available (Count)
system.cpu.statFuBusy::SimdMultAcc                  0      0.00%      9.78% # attempts to use FU when none available (Count)
system.cpu.statFuBusy::SimdShift                    0      0.00%      9.78% # attempts to use FU when none available (Count)
system.cpu.statFuBusy::SimdShiftAcc                 0      0.00%      9.78% # attempts to use FU when none available (Count)
system.cpu.statFuBusy::SimdDiv                      0      0.00%      9.78% # attempts to use FU when none available (Count)
system.cpu.statFuBusy::SimdSqrt                     0      0.00%      9.78% # attempts to use FU when none available (Count)
system.cpu.statFuBusy::SimdFloatAdd                 0      0.00%      9.78% # attempts to use FU when none available (Count)
system.cpu.statFuBusy::SimdFloatAlu                 0      0.00%      9.78% # attempts to use FU when none available (Count)
system.cpu.statFuBusy::SimdFloatCmp                 0      0.00%      9.78% # attempts to use FU when none available (Count)
system.cpu.statFuBusy::SimdFloatCvt                 0      0.00%      9.78% # attempts to use FU when none available (Count)
system.cpu.statFuBusy::SimdFloatDiv                 0      0.00%      9.78% # attempts to use FU when none available (Count)
system.cpu.statFuBusy::SimdFloatMisc                0      0.00%      9.78% # attempts to use FU when none available (Count)
system.cpu.statFuBusy::SimdFloatMult                0      0.00%      9.78% # attempts to use FU when none available (Count)
system.cpu.statFuBusy::SimdFloatMultAcc             0      0.00%      9.78% # attempts to use FU when none available (Count)
system.cpu.statFuBusy::SimdFloatSqrt                0      0.00%      9.78% # attempts to use FU when none available (Count)
system.cpu.statFuBusy::SimdReduceAdd                0      0.00%      9.78% # attempts to use FU when none available (Count)
system.cpu.statFuBusy::SimdReduceAlu                0      0.00%      9.78% # attempts to use FU when none available (Count)
system.cpu.statFuBusy::SimdReduceCmp                0      0.00%      9.78% # attempts to use FU when none available (Count)
system.cpu.statFuBusy::SimdFloatReduceAdd            0      0.00%      9.78% # attempts to use FU when none available (Count)
system.cpu.statFuBusy::SimdFloatReduceCmp            0      0.00%      9.78% # attempts to use FU when none available (Count)
system.cpu.statFuBusy::SimdAes                      0      0.00%      9.78% # attempts to use FU when none available (Count)
system.cpu.statFuBusy::SimdAesMix                   0      0.00%      9.78% # attempts to use FU when none available (Count)
system.cpu.statFuBusy::SimdSha1Hash                 0      0.00%      9.78% # attempts to use FU when none available (Count)
system.cpu.statFuBusy::SimdSha1Hash2                0      0.00%      9.78% # attempts to use FU when none available (Count)
system.cpu.statFuBusy::SimdSha256Hash               0      0.00%      9.78% # attempts to use FU when none available (Count)
system.cpu.statFuBusy::SimdSha256Hash2              0      0.00%      9.78% # attempts to use FU when none available (Count)
system.cpu.statFuBusy::SimdShaSigma2                0      0.00%      9.78% # attempts to use FU when none available (Count)
system.cpu.statFuBusy::SimdShaSigma3                0      0.00%      9.78% # attempts to use FU when none available (Count)
system.cpu.statFuBusy::SimdPredAlu                  0      0.00%      9.78% # attempts to use FU when none available (Count)
system.cpu.statFuBusy::MemRead                 204220     81.92%     91.71% # attempts to use FU when none available (Count)
system.cpu.statFuBusy::MemWrite                 18316      7.35%     99.05% # attempts to use FU when none available (Count)
system.cpu.statFuBusy::FloatMemRead              2357      0.95%    100.00% # attempts to use FU when none available (Count)
system.cpu.statFuBusy::FloatMemWrite                0      0.00%    100.00% # attempts to use FU when none available (Count)
system.cpu.statFuBusy::IprAccess                    0      0.00%    100.00% # attempts to use FU when none available (Count)
system.cpu.statFuBusy::InstPrefetch                 0      0.00%    100.00% # attempts to use FU when none available (Count)
system.cpu.statIssuedInstType_0::No_OpClass         9463      0.05%      0.05% # Number of instructions issued per FU type, per thread (Count)
system.cpu.statIssuedInstType_0::IntAlu      13117213     67.88%     67.93% # Number of instructions issued per FU type, per thread (Count)
system.cpu.statIssuedInstType_0::IntMult          202      0.00%     67.93% # Number of instructions issued per FU type, per thread (Count)
system.cpu.statIssuedInstType_0::IntDiv         25093      0.13%     68.06% # Number of instructions issued per FU type, per thread (Count)
system.cpu.statIssuedInstType_0::FloatAdd       247951      1.28%     69.34% # Number of instructions issued per FU type, per thread (Count)
system.cpu.statIssuedInstType_0::FloatCmp            0      0.00%     69.34% # Number of instructions issued per FU type, per thread (Count)
system.cpu.statIssuedInstType_0::FloatCvt          174      0.00%     69.34% # Number of instructions issued per FU type, per thread (Count)
system.cpu.statIssuedInstType_0::FloatMult            0      0.00%     69.34% # Number of instructions issued per FU type, per thread (Count)
system.cpu.statIssuedInstType_0::FloatMultAcc            0      0.00%     69.34% # Number of instructions issued per FU type, per thread (Count)
system.cpu.statIssuedInstType_0::FloatDiv            0      0.00%     69.34% # Number of instructions issued per FU type, per thread (Count)
system.cpu.statIssuedInstType_0::FloatMisc            0      0.00%     69.34% # Number of instructions issued per FU type, per thread (Count)
system.cpu.statIssuedInstType_0::FloatSqrt            0      0.00%     69.34% # Number of instructions issued per FU type, per thread (Count)
system.cpu.statIssuedInstType_0::SimdAdd            0      0.00%     69.34% # Number of instructions issued per FU type, per thread (Count)
system.cpu.statIssuedInstType_0::SimdAddAcc            0      0.00%     69.34% # Number of instructions issued per FU type, per thread (Count)
system.cpu.statIssuedInstType_0::SimdAlu            2      0.00%     69.34% # Number of instructions issued per FU type, per thread (Count)
system.cpu.statIssuedInstType_0::SimdCmp            0      0.00%     69.34% # Number of instructions issued per FU type, per thread (Count)
system.cpu.statIssuedInstType_0::SimdCvt           19      0.00%     69.34% # Number of instructions issued per FU type, per thread (Count)
system.cpu.statIssuedInstType_0::SimdMisc        40059      0.21%     69.55% # Number of instructions issued per FU type, per thread (Count)
system.cpu.statIssuedInstType_0::SimdMult            0      0.00%     69.55% # Number of instructions issued per FU type, per thread (Count)
system.cpu.statIssuedInstType_0::SimdMultAcc            0      0.00%     69.55% # Number of instructions issued per FU type, per thread (Count)
system.cpu.statIssuedInstType_0::SimdShift            0      0.00%     69.55% # Number of instructions issued per FU type, per thread (Count)
system.cpu.statIssuedInstType_0::SimdShiftAcc            0      0.00%     69.55% # Number of instructions issued per FU type, per thread (Count)
system.cpu.statIssuedInstType_0::SimdDiv            0      0.00%     69.55% # Number of instructions issued per FU type, per thread (Count)
system.cpu.statIssuedInstType_0::SimdSqrt            0      0.00%     69.55% # Number of instructions issued per FU type, per thread (Count)
system.cpu.statIssuedInstType_0::SimdFloatAdd            0      0.00%     69.55% # Number of instructions issued per FU type, per thread (Count)
system.cpu.statIssuedInstType_0::SimdFloatAlu            0      0.00%     69.55% # Number of instructions issued per FU type, per thread (Count)
system.cpu.statIssuedInstType_0::SimdFloatCmp            0      0.00%     69.55% # Number of instructions issued per FU type, per thread (Count)
system.cpu.statIssuedInstType_0::SimdFloatCvt       263823      1.37%     70.91% # Number of instructions issued per FU type, per thread (Count)
system.cpu.statIssuedInstType_0::SimdFloatDiv        20026      0.10%     71.02% # Number of instructions issued per FU type, per thread (Count)
system.cpu.statIssuedInstType_0::SimdFloatMisc            0      0.00%     71.02% # Number of instructions issued per FU type, per thread (Count)
system.cpu.statIssuedInstType_0::SimdFloatMult            0      0.00%     71.02% # Number of instructions issued per FU type, per thread (Count)
system.cpu.statIssuedInstType_0::SimdFloatMultAcc            0      0.00%     71.02% # Number of instructions issued per FU type, per thread (Count)
system.cpu.statIssuedInstType_0::SimdFloatSqrt            0      0.00%     71.02% # Number of instructions issued per FU type, per thread (Count)
system.cpu.statIssuedInstType_0::SimdReduceAdd            0      0.00%     71.02% # Number of instructions issued per FU type, per thread (Count)
system.cpu.statIssuedInstType_0::SimdReduceAlu            0      0.00%     71.02% # Number of instructions issued per FU type, per thread (Count)
system.cpu.statIssuedInstType_0::SimdReduceCmp            0      0.00%     71.02% # Number of instructions issued per FU type, per thread (Count)
system.cpu.statIssuedInstType_0::SimdFloatReduceAdd            0      0.00%     71.02% # Number of instructions issued per FU type, per thread (Count)
system.cpu.statIssuedInstType_0::SimdFloatReduceCmp            0      0.00%     71.02% # Number of instructions issued per FU type, per thread (Count)
system.cpu.statIssuedInstType_0::SimdAes            0      0.00%     71.02% # Number of instructions issued per FU type, per thread (Count)
system.cpu.statIssuedInstType_0::SimdAesMix            0      0.00%     71.02% # Number of instructions issued per FU type, per thread (Count)
system.cpu.statIssuedInstType_0::SimdSha1Hash            0      0.00%     71.02% # Number of instructions issued per FU type, per thread (Count)
system.cpu.statIssuedInstType_0::SimdSha1Hash2            0      0.00%     71.02% # Number of instructions issued per FU type, per thread (Count)
system.cpu.statIssuedInstType_0::SimdSha256Hash            0      0.00%     71.02% # Number of instructions issued per FU type, per thread (Count)
system.cpu.statIssuedInstType_0::SimdSha256Hash2            0      0.00%     71.02% # Number of instructions issued per FU type, per thread (Count)
system.cpu.statIssuedInstType_0::SimdShaSigma2            0      0.00%     71.02% # Number of instructions issued per FU type, per thread (Count)
system.cpu.statIssuedInstType_0::SimdShaSigma3            0      0.00%     71.02% # Number of instructions issued per FU type, per thread (Count)
system.cpu.statIssuedInstType_0::SimdPredAlu            0      0.00%     71.02% # Number of instructions issued per FU type, per thread (Count)
system.cpu.statIssuedInstType_0::MemRead      3519680     18.21%     89.23% # Number of instructions issued per FU type, per thread (Count)
system.cpu.statIssuedInstType_0::MemWrite      1608635      8.32%     97.55% # Number of instructions issued per FU type, per thread (Count)
system.cpu.statIssuedInstType_0::FloatMemRead       472593      2.45%    100.00% # Number of instructions issued per FU type, per thread (Count)
system.cpu.statIssuedInstType_0::FloatMemWrite          313      0.00%    100.00% # Number of instructions issued per FU type, per thread (Count)
system.cpu.statIssuedInstType_0::IprAccess            0      0.00%    100.00% # Number of instructions issued per FU type, per thread (Count)
system.cpu.statIssuedInstType_0::InstPrefetch            0      0.00%    100.00% # Number of instructions issued per FU type, per thread (Count)
system.cpu.statIssuedInstType_0::total       19325246                       # Number of instructions issued per FU type, per thread (Count)
system.cpu.issueRate                         2.927822                       # Inst issue rate ((Count/Cycle))
system.cpu.fuBusy                              249278                       # FU busy when requested (Count)
system.cpu.fuBusyRate                        0.012899                       # FU busy rate (busy events/executed inst) ((Count/Count))
system.cpu.intInstQueueReads                 43367490                       # Number of integer instruction queue reads (Count)
system.cpu.intInstQueueWrites                20642357                       # Number of integer instruction queue writes (Count)
system.cpu.intInstQueueWakeupAccesses        18170803                       # Number of integer instruction queue wakeup accesses (Count)
system.cpu.fpInstQueueReads                   2092376                       # Number of floating instruction queue reads (Count)
system.cpu.fpInstQueueWrites                  1071200                       # Number of floating instruction queue writes (Count)
system.cpu.fpInstQueueWakeupAccesses          1042429                       # Number of floating instruction queue wakeup accesses (Count)
system.cpu.vecInstQueueReads                        0                       # Number of vector instruction queue reads (Count)
system.cpu.vecInstQueueWrites                       0                       # Number of vector instruction queue writes (Count)
system.cpu.vecInstQueueWakeupAccesses               0                       # Number of vector instruction queue wakeup accesses (Count)
system.cpu.intAluAccesses                    18517731                       # Number of integer alu accesses (Count)
system.cpu.fpAluAccesses                      1047330                       # Number of floating point alu accesses (Count)
system.cpu.vecAluAccesses                           0                       # Number of vector alu accesses (Count)
system.cpu.numInsts                          19254066                       # Number of executed instructions (Count)
system.cpu.numLoadInsts                       3978175                       # Number of load instructions executed (Count)
system.cpu.numSquashedInsts                     71175                       # Number of squashed instructions skipped in execute (Count)
system.cpu.numSwp                                   0                       # Number of swp insts executed (Count)
system.cpu.numNop                                   0                       # Number of nop insts executed (Count)
system.cpu.numRefs                            5580013                       # Number of memory reference insts executed (Count)
system.cpu.numBranches                        1846329                       # Number of branches executed (Count)
system.cpu.numStoreInsts                      1601838                       # Number of stores executed (Count)
system.cpu.numRate                           2.917038                       # Inst execution rate ((Count/Cycle))
system.cpu.timesIdled                             526                       # Number of times that the entire CPU went into an idle state and unscheduled itself (Count)
system.cpu.idleCycles                           43662                       # Total number of cycles that the CPU has spent unscheduled due to idling (Cycle)
system.cpu.committedInsts                    10000004                       # Number of Instructions Simulated (Count)
system.cpu.committedOps                      18302657                       # Number of Ops (including micro ops) Simulated (Count)
system.cpu.cpi                               0.660055                       # CPI: Cycles Per Instruction ((Cycle/Count))
system.cpu.totalCpi                          0.660055                       # CPI: Total CPI of All Threads ((Cycle/Count))
system.cpu.ipc                               1.515025                       # IPC: Instructions Per Cycle ((Count/Cycle))
system.cpu.totalIpc                          1.515025                       # IPC: Total IPC of All Threads ((Count/Cycle))
system.cpu.intRegfileReads                   29775182                       # Number of integer regfile reads (Count)
system.cpu.intRegfileWrites                  16073070                       # Number of integer regfile writes (Count)
system.cpu.fpRegfileReads                     1572551                       # Number of floating regfile reads (Count)
system.cpu.fpRegfileWrites                    1270344                       # Number of floating regfile writes (Count)
system.cpu.ccRegfileReads                     8037885                       # number of cc regfile reads (Count)
system.cpu.ccRegfileWrites                    5991231                       # number of cc regfile writes (Count)
system.cpu.miscRegfileReads                   9451163                       # number of misc regfile reads (Count)
system.cpu.miscRegfileWrites                       81                       # number of misc regfile writes (Count)
system.cpu.MemDepUnit__0.insertedLoads        4079994                       # Number of loads inserted to the mem dependence unit. (Count)
system.cpu.MemDepUnit__0.insertedStores       1643566                       # Number of stores inserted to the mem dependence unit. (Count)
system.cpu.MemDepUnit__0.conflictingLoads      1691427                       # Number of conflicting loads. (Count)
system.cpu.MemDepUnit__0.conflictingStores       405800                       # Number of conflicting stores. (Count)
system.cpu.MemDepUnit__1.insertedLoads              0                       # Number of loads inserted to the mem dependence unit. (Count)
system.cpu.MemDepUnit__1.insertedStores             0                       # Number of stores inserted to the mem dependence unit. (Count)
system.cpu.MemDepUnit__1.conflictingLoads            0                       # Number of conflicting loads. (Count)
system.cpu.MemDepUnit__1.conflictingStores            0                       # Number of conflicting stores. (Count)
system.cpu.MemDepUnit__2.insertedLoads              0                       # Number of loads inserted to the mem dependence unit. (Count)
system.cpu.MemDepUnit__2.insertedStores             0                       # Number of stores inserted to the mem dependence unit. (Count)
system.cpu.MemDepUnit__2.conflictingLoads            0                       # Number of conflicting loads. (Count)
system.cpu.MemDepUnit__2.conflictingStores            0                       # Number of conflicting stores. (Count)
system.cpu.MemDepUnit__3.insertedLoads              0                       # Number of loads inserted to the mem dependence unit. (Count)
system.cpu.MemDepUnit__3.insertedStores             0                       # Number of stores inserted to the mem dependence unit. (Count)
system.cpu.MemDepUnit__3.conflictingLoads            0                       # Number of conflicting loads. (Count)
system.cpu.MemDepUnit__3.conflictingStores            0                       # Number of conflicting stores. (Count)
system.cpu.branchPred.lookups                 2075313                       # Number of BP lookups (Count)
system.cpu.branchPred.condPredicted           1447160                       # Number of conditional branches predicted (Count)
system.cpu.branchPred.condIncorrect             15602                       # Number of conditional branches incorrect (Count)
system.cpu.branchPred.BTBLookups               997364                       # Number of BTB lookups (Count)
system.cpu.branchPred.BTBHits                  991160                       # Number of BTB hits (Count)
system.cpu.branchPred.BTBHitRatio            0.993780                       # BTB Hit Ratio (Ratio)
system.cpu.branchPred.RASUsed                  283095                       # Number of times the RAS was used to get a target. (Count)
system.cpu.branchPred.RASIncorrect                  1                       # Number of incorrect RAS predictions. (Count)
system.cpu.branchPred.indirectLookups           27248                       # Number of indirect predictor lookups. (Count)
system.cpu.branchPred.indirectHits              25763                       # Number of indirect target hits. (Count)
system.cpu.branchPred.indirectMisses             1485                       # Number of indirect misses. (Count)
system.cpu.branchPred.indirectMispredicted          261                       # Number of mispredicted indirect branches. (Count)
system.cpu.commit.commitSquashedInsts         1699837                       # The number of squashed insts skipped by commit (Count)
system.cpu.commit.commitNonSpecStalls              81                       # The number of times commit has been forced to stall to communicate backwards (Count)
system.cpu.commit.branchMispredicts             37049                       # The number of times a branch was mispredicted (Count)
system.cpu.commit.numCommittedDist::samples      6307959                       # Number of insts commited each cycle (Count)
system.cpu.commit.numCommittedDist::mean     2.901518                       # Number of insts commited each cycle (Count)
system.cpu.commit.numCommittedDist::stdev     3.071672                       # Number of insts commited each cycle (Count)
system.cpu.commit.numCommittedDist::underflows            0      0.00%      0.00% # Number of insts commited each cycle (Count)
system.cpu.commit.numCommittedDist::0         1247643     19.78%     19.78% # Number of insts commited each cycle (Count)
system.cpu.commit.numCommittedDist::1         2107265     33.41%     53.19% # Number of insts commited each cycle (Count)
system.cpu.commit.numCommittedDist::2          734410     11.64%     64.83% # Number of insts commited each cycle (Count)
system.cpu.commit.numCommittedDist::3          485077      7.69%     72.52% # Number of insts commited each cycle (Count)
system.cpu.commit.numCommittedDist::4           39179      0.62%     73.14% # Number of insts commited each cycle (Count)
system.cpu.commit.numCommittedDist::5          106228      1.68%     74.82% # Number of insts commited each cycle (Count)
system.cpu.commit.numCommittedDist::6           56751      0.90%     75.72% # Number of insts commited each cycle (Count)
system.cpu.commit.numCommittedDist::7            8269      0.13%     75.85% # Number of insts commited each cycle (Count)
system.cpu.commit.numCommittedDist::8         1523137     24.15%    100.00% # Number of insts commited each cycle (Count)
system.cpu.commit.numCommittedDist::overflows            0      0.00%    100.00% # Number of insts commited each cycle (Count)
system.cpu.commit.numCommittedDist::min_value            0                       # Number of insts commited each cycle (Count)
system.cpu.commit.numCommittedDist::max_value            8                       # Number of insts commited each cycle (Count)
system.cpu.commit.numCommittedDist::total      6307959                       # Number of insts commited each cycle (Count)
system.cpu.commit.instsCommitted             10000004                       # Number of instructions committed (Count)
system.cpu.commit.opsCommitted               18302657                       # Number of ops (including micro ops) committed (Count)
system.cpu.commit.memRefs                     5353302                       # Number of memory references committed (Count)
system.cpu.commit.loads                       3810979                       # Number of loads committed (Count)
system.cpu.commit.amos                              0                       # Number of atomic instructions committed (Count)
system.cpu.commit.membars                           0                       # Number of memory barriers committed (Count)
system.cpu.commit.branches                    1789809                       # Number of branches committed (Count)
system.cpu.commit.vectorInstructions                0                       # Number of committed Vector instructions. (Count)
system.cpu.commit.floating                    1027108                       # Number of committed floating point instructions. (Count)
system.cpu.commit.integer                    17763302                       # Number of committed integer instructions. (Count)
system.cpu.commit.functionCalls                264186                       # Number of function calls committed. (Count)
system.cpu.commit.committedInstType_0::No_OpClass         6314      0.03%      0.03% # Class of committed instruction (Count)
system.cpu.commit.committedInstType_0::IntAlu     12356532     67.51%     67.55% # Class of committed instruction (Count)
system.cpu.commit.committedInstType_0::IntMult          163      0.00%     67.55% # Class of committed instruction (Count)
system.cpu.commit.committedInstType_0::IntDiv        22939      0.13%     67.67% # Class of committed instruction (Count)
system.cpu.commit.committedInstType_0::FloatAdd       241629      1.32%     68.99% # Class of committed instruction (Count)
system.cpu.commit.committedInstType_0::FloatCmp            0      0.00%     68.99% # Class of committed instruction (Count)
system.cpu.commit.committedInstType_0::FloatCvt          144      0.00%     68.99% # Class of committed instruction (Count)
system.cpu.commit.committedInstType_0::FloatMult            0      0.00%     68.99% # Class of committed instruction (Count)
system.cpu.commit.committedInstType_0::FloatMultAcc            0      0.00%     68.99% # Class of committed instruction (Count)
system.cpu.commit.committedInstType_0::FloatDiv            0      0.00%     68.99% # Class of committed instruction (Count)
system.cpu.commit.committedInstType_0::FloatMisc            0      0.00%     68.99% # Class of committed instruction (Count)
system.cpu.commit.committedInstType_0::FloatSqrt            0      0.00%     68.99% # Class of committed instruction (Count)
system.cpu.commit.committedInstType_0::SimdAdd            0      0.00%     68.99% # Class of committed instruction (Count)
system.cpu.commit.committedInstType_0::SimdAddAcc            0      0.00%     68.99% # Class of committed instruction (Count)
system.cpu.commit.committedInstType_0::SimdAlu            2      0.00%     68.99% # Class of committed instruction (Count)
system.cpu.commit.committedInstType_0::SimdCmp            0      0.00%     68.99% # Class of committed instruction (Count)
system.cpu.commit.committedInstType_0::SimdCvt           12      0.00%     68.99% # Class of committed instruction (Count)
system.cpu.commit.committedInstType_0::SimdMisc        40042      0.22%     69.21% # Class of committed instruction (Count)
system.cpu.commit.committedInstType_0::SimdMult            0      0.00%     69.21% # Class of committed instruction (Count)
system.cpu.commit.committedInstType_0::SimdMultAcc            0      0.00%     69.21% # Class of committed instruction (Count)
system.cpu.commit.committedInstType_0::SimdShift            0      0.00%     69.21% # Class of committed instruction (Count)
system.cpu.commit.committedInstType_0::SimdShiftAcc            0      0.00%     69.21% # Class of committed instruction (Count)
system.cpu.commit.committedInstType_0::SimdDiv            0      0.00%     69.21% # Class of committed instruction (Count)
system.cpu.commit.committedInstType_0::SimdSqrt            0      0.00%     69.21% # Class of committed instruction (Count)
system.cpu.commit.committedInstType_0::SimdFloatAdd            0      0.00%     69.21% # Class of committed instruction (Count)
system.cpu.commit.committedInstType_0::SimdFloatAlu            0      0.00%     69.21% # Class of committed instruction (Count)
system.cpu.commit.committedInstType_0::SimdFloatCmp            0      0.00%     69.21% # Class of committed instruction (Count)
system.cpu.commit.committedInstType_0::SimdFloatCvt       261555      1.43%     70.64% # Class of committed instruction (Count)
system.cpu.commit.committedInstType_0::SimdFloatDiv        20023      0.11%     70.75% # Class of committed instruction (Count)
system.cpu.commit.committedInstType_0::SimdFloatMisc            0      0.00%     70.75% # Class of committed instruction (Count)
system.cpu.commit.committedInstType_0::SimdFloatMult            0      0.00%     70.75% # Class of committed instruction (Count)
system.cpu.commit.committedInstType_0::SimdFloatMultAcc            0      0.00%     70.75% # Class of committed instruction (Count)
system.cpu.commit.committedInstType_0::SimdFloatSqrt            0      0.00%     70.75% # Class of committed instruction (Count)
system.cpu.commit.committedInstType_0::SimdReduceAdd            0      0.00%     70.75% # Class of committed instruction (Count)
system.cpu.commit.committedInstType_0::SimdReduceAlu            0      0.00%     70.75% # Class of committed instruction (Count)
system.cpu.commit.committedInstType_0::SimdReduceCmp            0      0.00%     70.75% # Class of committed instruction (Count)
system.cpu.commit.committedInstType_0::SimdFloatReduceAdd            0      0.00%     70.75% # Class of committed instruction (Count)
system.cpu.commit.committedInstType_0::SimdFloatReduceCmp            0      0.00%     70.75% # Class of committed instruction (Count)
system.cpu.commit.committedInstType_0::SimdAes            0      0.00%     70.75% # Class of committed instruction (Count)
system.cpu.commit.committedInstType_0::SimdAesMix            0      0.00%     70.75% # Class of committed instruction (Count)
system.cpu.commit.committedInstType_0::SimdSha1Hash            0      0.00%     70.75% # Class of committed instruction (Count)
system.cpu.commit.committedInstType_0::SimdSha1Hash2            0      0.00%     70.75% # Class of committed instruction (Count)
system.cpu.commit.committedInstType_0::SimdSha256Hash            0      0.00%     70.75% # Class of committed instruction (Count)
system.cpu.commit.committedInstType_0::SimdSha256Hash2            0      0.00%     70.75% # Class of committed instruction (Count)
system.cpu.commit.committedInstType_0::SimdShaSigma2            0      0.00%     70.75% # Class of committed instruction (Count)
system.cpu.commit.committedInstType_0::SimdShaSigma3            0      0.00%     70.75% # Class of committed instruction (Count)
system.cpu.commit.committedInstType_0::SimdPredAlu            0      0.00%     70.75% # Class of committed instruction (Count)
system.cpu.commit.committedInstType_0::MemRead      3347597     18.29%     89.04% # Class of committed instruction (Count)
system.cpu.commit.committedInstType_0::MemWrite      1542011      8.43%     97.47% # Class of committed instruction (Count)
system.cpu.commit.committedInstType_0::FloatMemRead       463382      2.53%    100.00% # Class of committed instruction (Count)
system.cpu.commit.committedInstType_0::FloatMemWrite          312      0.00%    100.00% # Class of committed instruction (Count)
system.cpu.commit.committedInstType_0::IprAccess            0      0.00%    100.00% # Class of committed instruction (Count)
system.cpu.commit.committedInstType_0::InstPrefetch            0      0.00%    100.00% # Class of committed instruction (Count)
system.cpu.commit.committedInstType_0::total     18302657                       # Class of committed instruction (Count)
system.cpu.commit.commitEligibleSamples       1523137                       # number cycles where commit BW limit reached (Cycle)
system.cpu.dcache.demandHits::cpu.data        3954788                       # number of demand (read+write) hits (Count)
system.cpu.dcache.demandHits::total           3954788                       # number of demand (read+write) hits (Count)
system.cpu.dcache.overallHits::cpu.data       3954788                       # number of overall hits (Count)
system.cpu.dcache.overallHits::total          3954788                       # number of overall hits (Count)
system.cpu.dcache.demandMisses::cpu.data        29474                       # number of demand (read+write) misses (Count)
system.cpu.dcache.demandMisses::total           29474                       # number of demand (read+write) misses (Count)
system.cpu.dcache.overallMisses::cpu.data        29474                       # number of overall misses (Count)
system.cpu.dcache.overallMisses::total          29474                       # number of overall misses (Count)
system.cpu.dcache.demandMissLatency::cpu.data   1776676477                       # number of demand (read+write) miss ticks (Tick)
system.cpu.dcache.demandMissLatency::total   1776676477                       # number of demand (read+write) miss ticks (Tick)
system.cpu.dcache.overallMissLatency::cpu.data   1776676477                       # number of overall miss ticks (Tick)
system.cpu.dcache.overallMissLatency::total   1776676477                       # number of overall miss ticks (Tick)
system.cpu.dcache.demandAccesses::cpu.data      3984262                       # number of demand (read+write) accesses (Count)
system.cpu.dcache.demandAccesses::total       3984262                       # number of demand (read+write) accesses (Count)
system.cpu.dcache.overallAccesses::cpu.data      3984262                       # number of overall (read+write) accesses (Count)
system.cpu.dcache.overallAccesses::total      3984262                       # number of overall (read+write) accesses (Count)
system.cpu.dcache.demandMissRate::cpu.data     0.007398                       # miss rate for demand accesses (Ratio)
system.cpu.dcache.demandMissRate::total      0.007398                       # miss rate for demand accesses (Ratio)
system.cpu.dcache.overallMissRate::cpu.data     0.007398                       # miss rate for overall accesses (Ratio)
system.cpu.dcache.overallMissRate::total     0.007398                       # miss rate for overall accesses (Ratio)
system.cpu.dcache.demandAvgMissLatency::cpu.data 60279.448904                       # average overall miss latency in ticks ((Tick/Count))
system.cpu.dcache.demandAvgMissLatency::total 60279.448904                       # average overall miss latency in ticks ((Tick/Count))
system.cpu.dcache.overallAvgMissLatency::cpu.data 60279.448904                       # average overall miss latency ((Tick/Count))
system.cpu.dcache.overallAvgMissLatency::total 60279.448904                       # average overall miss latency ((Tick/Count))
system.cpu.dcache.blockedCycles::no_mshrs        21202                       # number of cycles access was blocked (Cycle)
system.cpu.dcache.blockedCycles::no_targets          514                       # number of cycles access was blocked (Cycle)
system.cpu.dcache.blockedCauses::no_mshrs          496                       # number of times access was blocked (Count)
system.cpu.dcache.blockedCauses::no_targets            7                       # number of times access was blocked (Count)
system.cpu.dcache.avgBlocked::no_mshrs      42.745968                       # average number of cycles each access was blocked ((Cycle/Count))
system.cpu.dcache.avgBlocked::no_targets    73.428571                       # average number of cycles each access was blocked ((Cycle/Count))
system.cpu.dcache.writebacks::writebacks         1655                       # number of writebacks (Count)
system.cpu.dcache.writebacks::total              1655                       # number of writebacks (Count)
system.cpu.dcache.demandMshrHits::cpu.data        19464                       # number of demand (read+write) MSHR hits (Count)
system.cpu.dcache.demandMshrHits::total         19464                       # number of demand (read+write) MSHR hits (Count)
system.cpu.dcache.overallMshrHits::cpu.data        19464                       # number of overall MSHR hits (Count)
system.cpu.dcache.overallMshrHits::total        19464                       # number of overall MSHR hits (Count)
system.cpu.dcache.demandMshrMisses::cpu.data        10010                       # number of demand (read+write) MSHR misses (Count)
system.cpu.dcache.demandMshrMisses::total        10010                       # number of demand (read+write) MSHR misses (Count)
system.cpu.dcache.overallMshrMisses::cpu.data        10010                       # number of overall MSHR misses (Count)
system.cpu.dcache.overallMshrMisses::total        10010                       # number of overall MSHR misses (Count)
system.cpu.dcache.demandMshrMissLatency::cpu.data    633059977                       # number of demand (read+write) MSHR miss ticks (Tick)
system.cpu.dcache.demandMshrMissLatency::total    633059977                       # number of demand (read+write) MSHR miss ticks (Tick)
system.cpu.dcache.overallMshrMissLatency::cpu.data    633059977                       # number of overall MSHR miss ticks (Tick)
system.cpu.dcache.overallMshrMissLatency::total    633059977                       # number of overall MSHR miss ticks (Tick)
system.cpu.dcache.demandMshrMissRate::cpu.data     0.002512                       # mshr miss ratio for demand accesses (Ratio)
system.cpu.dcache.demandMshrMissRate::total     0.002512                       # mshr miss ratio for demand accesses (Ratio)
system.cpu.dcache.overallMshrMissRate::cpu.data     0.002512                       # mshr miss ratio for overall accesses (Ratio)
system.cpu.dcache.overallMshrMissRate::total     0.002512                       # mshr miss ratio for overall accesses (Ratio)
system.cpu.dcache.demandAvgMshrMissLatency::cpu.data 63242.754945                       # average overall mshr miss latency ((Tick/Count))
system.cpu.dcache.demandAvgMshrMissLatency::total 63242.754945                       # average overall mshr miss latency ((Tick/Count))
system.cpu.dcache.overallAvgMshrMissLatency::cpu.data 63242.754945                       # average overall mshr miss latency ((Tick/Count))
system.cpu.dcache.overallAvgMshrMissLatency::total 63242.754945                       # average overall mshr miss latency ((Tick/Count))
system.cpu.dcache.replacements                   8986                       # number of replacements (Count)
system.cpu.dcache.ReadReq.hits::cpu.data      2414515                       # number of ReadReq hits (Count)
system.cpu.dcache.ReadReq.hits::total         2414515                       # number of ReadReq hits (Count)
system.cpu.dcache.ReadReq.misses::cpu.data        27420                       # number of ReadReq misses (Count)
system.cpu.dcache.ReadReq.misses::total         27420                       # number of ReadReq misses (Count)
system.cpu.dcache.ReadReq.missLatency::cpu.data   1659440500                       # number of ReadReq miss ticks (Tick)
system.cpu.dcache.ReadReq.missLatency::total   1659440500                       # number of ReadReq miss ticks (Tick)
system.cpu.dcache.ReadReq.accesses::cpu.data      2441935                       # number of ReadReq accesses(hits+misses) (Count)
system.cpu.dcache.ReadReq.accesses::total      2441935                       # number of ReadReq accesses(hits+misses) (Count)
system.cpu.dcache.ReadReq.missRate::cpu.data     0.011229                       # miss rate for ReadReq accesses (Ratio)
system.cpu.dcache.ReadReq.missRate::total     0.011229                       # miss rate for ReadReq accesses (Ratio)
system.cpu.dcache.ReadReq.avgMissLatency::cpu.data 60519.347192                       # average ReadReq miss latency ((Tick/Count))
system.cpu.dcache.ReadReq.avgMissLatency::total 60519.347192                       # average ReadReq miss latency ((Tick/Count))
system.cpu.dcache.ReadReq.mshrHits::cpu.data        19455                       # number of ReadReq MSHR hits (Count)
system.cpu.dcache.ReadReq.mshrHits::total        19455                       # number of ReadReq MSHR hits (Count)
system.cpu.dcache.ReadReq.mshrMisses::cpu.data         7965                       # number of ReadReq MSHR misses (Count)
system.cpu.dcache.ReadReq.mshrMisses::total         7965                       # number of ReadReq MSHR misses (Count)
system.cpu.dcache.ReadReq.mshrMissLatency::cpu.data    518258500                       # number of ReadReq MSHR miss ticks (Tick)
system.cpu.dcache.ReadReq.mshrMissLatency::total    518258500                       # number of ReadReq MSHR miss ticks (Tick)
system.cpu.dcache.ReadReq.mshrMissRate::cpu.data     0.003262                       # mshr miss rate for ReadReq accesses (Ratio)
system.cpu.dcache.ReadReq.mshrMissRate::total     0.003262                       # mshr miss rate for ReadReq accesses (Ratio)
system.cpu.dcache.ReadReq.avgMshrMissLatency::cpu.data 65066.980540                       # average ReadReq mshr miss latency ((Tick/Count))
system.cpu.dcache.ReadReq.avgMshrMissLatency::total 65066.980540                       # average ReadReq mshr miss latency ((Tick/Count))
system.cpu.dcache.WriteReq.hits::cpu.data      1540273                       # number of WriteReq hits (Count)
system.cpu.dcache.WriteReq.hits::total        1540273                       # number of WriteReq hits (Count)
system.cpu.dcache.WriteReq.misses::cpu.data         2054                       # number of WriteReq misses (Count)
system.cpu.dcache.WriteReq.misses::total         2054                       # number of WriteReq misses (Count)
system.cpu.dcache.WriteReq.missLatency::cpu.data    117235977                       # number of WriteReq miss ticks (Tick)
system.cpu.dcache.WriteReq.missLatency::total    117235977                       # number of WriteReq miss ticks (Tick)
system.cpu.dcache.WriteReq.accesses::cpu.data      1542327                       # number of WriteReq accesses(hits+misses) (Count)
system.cpu.dcache.WriteReq.accesses::total      1542327                       # number of WriteReq accesses(hits+misses) (Count)
system.cpu.dcache.WriteReq.missRate::cpu.data     0.001332                       # miss rate for WriteReq accesses (Ratio)
system.cpu.dcache.WriteReq.missRate::total     0.001332                       # miss rate for WriteReq accesses (Ratio)
system.cpu.dcache.WriteReq.avgMissLatency::cpu.data 57076.911879                       # average WriteReq miss latency ((Tick/Count))
system.cpu.dcache.WriteReq.avgMissLatency::total 57076.911879                       # average WriteReq miss latency ((Tick/Count))
system.cpu.dcache.WriteReq.mshrHits::cpu.data            9                       # number of WriteReq MSHR hits (Count)
system.cpu.dcache.WriteReq.mshrHits::total            9                       # number of WriteReq MSHR hits (Count)
system.cpu.dcache.WriteReq.mshrMisses::cpu.data         2045                       # number of WriteReq MSHR misses (Count)
system.cpu.dcache.WriteReq.mshrMisses::total         2045                       # number of WriteReq MSHR misses (Count)
system.cpu.dcache.WriteReq.mshrMissLatency::cpu.data    114801477                       # number of WriteReq MSHR miss ticks (Tick)
system.cpu.dcache.WriteReq.mshrMissLatency::total    114801477                       # number of WriteReq MSHR miss ticks (Tick)
system.cpu.dcache.WriteReq.mshrMissRate::cpu.data     0.001326                       # mshr miss rate for WriteReq accesses (Ratio)
system.cpu.dcache.WriteReq.mshrMissRate::total     0.001326                       # mshr miss rate for WriteReq accesses (Ratio)
system.cpu.dcache.WriteReq.avgMshrMissLatency::cpu.data 56137.641565                       # average WriteReq mshr miss latency ((Tick/Count))
system.cpu.dcache.WriteReq.avgMshrMissLatency::total 56137.641565                       # average WriteReq mshr miss latency ((Tick/Count))
system.cpu.dcache.power_state.pwrStateResidencyTicks::UNDEFINED   3300276000                       # Cumulative time (in ticks) in various power states (Tick)
system.cpu.dcache.tags.tagsInUse          1006.818434                       # Average ticks per tags in use ((Tick/Count))
system.cpu.dcache.tags.totalRefs              3964798                       # Total number of references to valid blocks. (Count)
system.cpu.dcache.tags.sampledRefs              10010                       # Sample count of references to valid blocks. (Count)
system.cpu.dcache.tags.avgRefs             396.083716                       # Average number of references to valid blocks. ((Count/Count))
system.cpu.dcache.tags.warmupTick              148000                       # The tick when the warmup percentage was hit. (Tick)
system.cpu.dcache.tags.occupancies::cpu.data  1006.818434                       # Average occupied blocks per tick, per requestor ((Count/Tick))
system.cpu.dcache.tags.avgOccs::cpu.data     0.983221                       # Average percentage of cache occupancy ((Ratio/Tick))
system.cpu.dcache.tags.avgOccs::total        0.983221                       # Average percentage of cache occupancy ((Ratio/Tick))
system.cpu.dcache.tags.occupanciesTaskId::1024         1024                       # Occupied blocks per task id (Count)
system.cpu.dcache.tags.ageTaskId_1024::1            3                       # Occupied blocks per task id, per block age (Count)
system.cpu.dcache.tags.ageTaskId_1024::3         1021                       # Occupied blocks per task id, per block age (Count)
system.cpu.dcache.tags.ratioOccsTaskId::1024            1                       # Ratio of occupied blocks and all blocks, per task id (Ratio)
system.cpu.dcache.tags.tagAccesses            7978534                       # Number of tag accesses (Count)
system.cpu.dcache.tags.dataAccesses           7978534                       # Number of data accesses (Count)
system.cpu.dcache.tags.power_state.pwrStateResidencyTicks::UNDEFINED   3300276000                       # Cumulative time (in ticks) in various power states (Tick)
system.cpu.decode.idleCycles                  1044890                       # Number of cycles decode is idle (Cycle)
system.cpu.decode.blockedCycles               2588981                       # Number of cycles decode is blocked (Cycle)
system.cpu.decode.runCycles                   1911150                       # Number of cycles decode is running (Cycle)
system.cpu.decode.unblockCycles                974414                       # Number of cycles decode is unblocking (Cycle)
system.cpu.decode.squashCycles                  37456                       # Number of cycles decode is squashing (Cycle)
system.cpu.decode.branchResolved               968468                       # Number of times decode resolved a branch (Count)
system.cpu.decode.branchMispred                   521                       # Number of times decode detected a branch misprediction (Count)
system.cpu.decode.decodedInsts               20451196                       # Number of instructions handled by decode (Count)
system.cpu.decode.squashedInsts                  2413                       # Number of squashed instructions handled by decode (Count)
system.cpu.dtb_walker_cache.blockedCycles::no_mshrs            0                       # number of cycles access was blocked (Cycle)
system.cpu.dtb_walker_cache.blockedCycles::no_targets            0                       # number of cycles access was blocked (Cycle)
system.cpu.dtb_walker_cache.blockedCauses::no_mshrs            0                       # number of times access was blocked (Count)
system.cpu.dtb_walker_cache.blockedCauses::no_targets            0                       # number of times access was blocked (Count)
system.cpu.dtb_walker_cache.avgBlocked::no_mshrs          nan                       # average number of cycles each access was blocked ((Cycle/Count))
system.cpu.dtb_walker_cache.avgBlocked::no_targets          nan                       # average number of cycles each access was blocked ((Cycle/Count))
system.cpu.dtb_walker_cache.replacements            0                       # number of replacements (Count)
system.cpu.dtb_walker_cache.power_state.pwrStateResidencyTicks::UNDEFINED   3300276000                       # Cumulative time (in ticks) in various power states (Tick)
system.cpu.dtb_walker_cache.tags.tagsInUse            0                       # Average ticks per tags in use ((Tick/Count))
system.cpu.dtb_walker_cache.tags.totalRefs            0                       # Total number of references to valid blocks. (Count)
system.cpu.dtb_walker_cache.tags.sampledRefs            0                       # Sample count of references to valid blocks. (Count)
system.cpu.dtb_walker_cache.tags.avgRefs          nan                       # Average number of references to valid blocks. ((Count/Count))
system.cpu.dtb_walker_cache.tags.warmupTick            0                       # The tick when the warmup percentage was hit. (Tick)
system.cpu.dtb_walker_cache.tags.tagAccesses            0                       # Number of tag accesses (Count)
system.cpu.dtb_walker_cache.tags.dataAccesses            0                       # Number of data accesses (Count)
system.cpu.dtb_walker_cache.tags.power_state.pwrStateResidencyTicks::UNDEFINED   3300276000                       # Cumulative time (in ticks) in various power states (Tick)
system.cpu.fetch.icacheStallCycles            1815486                       # Number of cycles fetch is stalled on an Icache miss (Cycle)
system.cpu.fetch.insts                       11464301                       # Number of instructions fetch has processed (Count)
system.cpu.fetch.branches                     2075313                       # Number of branches that fetch encountered (Count)
system.cpu.fetch.predictedBranches            1300018                       # Number of branches that fetch has predicted taken (Count)
system.cpu.fetch.cycles                       4701632                       # Number of cycles fetch has run and was not squashing or blocked (Cycle)
system.cpu.fetch.squashCycles                   75912                       # Number of cycles fetch has spent squashing (Cycle)
system.cpu.fetch.miscStallCycles                  227                       # Number of cycles fetch has spent waiting on interrupts, or bad addresses, or out of MSHRs (Cycle)
system.cpu.fetch.pendingTrapStallCycles          1590                       # Number of stall cycles due to pending traps (Cycle)
system.cpu.fetch.cacheLines                   1777511                       # Number of cache lines fetched (Count)
system.cpu.fetch.icacheSquashes                  9862                       # Number of outstanding Icache misses that were squashed (Count)
system.cpu.fetch.nisnDist::samples            6556891                       # Number of instructions fetched each cycle (Total) (Count)
system.cpu.fetch.nisnDist::mean              3.185790                       # Number of instructions fetched each cycle (Total) (Count)
system.cpu.fetch.nisnDist::stdev             3.311927                       # Number of instructions fetched each cycle (Total) (Count)
system.cpu.fetch.nisnDist::underflows               0      0.00%      0.00% # Number of instructions fetched each cycle (Total) (Count)
system.cpu.fetch.nisnDist::0                  2862412     43.66%     43.66% # Number of instructions fetched each cycle (Total) (Count)
system.cpu.fetch.nisnDist::1                   184016      2.81%     46.46% # Number of instructions fetched each cycle (Total) (Count)
system.cpu.fetch.nisnDist::2                   286942      4.38%     50.84% # Number of instructions fetched each cycle (Total) (Count)
system.cpu.fetch.nisnDist::3                   363034      5.54%     56.37% # Number of instructions fetched each cycle (Total) (Count)
system.cpu.fetch.nisnDist::4                   468924      7.15%     63.53% # Number of instructions fetched each cycle (Total) (Count)
system.cpu.fetch.nisnDist::5                   371305      5.66%     69.19% # Number of instructions fetched each cycle (Total) (Count)
system.cpu.fetch.nisnDist::6                   287147      4.38%     73.57% # Number of instructions fetched each cycle (Total) (Count)
system.cpu.fetch.nisnDist::7                   278115      4.24%     77.81% # Number of instructions fetched each cycle (Total) (Count)
system.cpu.fetch.nisnDist::8                  1454996     22.19%    100.00% # Number of instructions fetched each cycle (Total) (Count)
system.cpu.fetch.nisnDist::overflows                0      0.00%    100.00% # Number of instructions fetched each cycle (Total) (Count)
system.cpu.fetch.nisnDist::min_value                0                       # Number of instructions fetched each cycle (Total) (Count)
system.cpu.fetch.nisnDist::max_value                8                       # Number of instructions fetched each cycle (Total) (Count)
system.cpu.fetch.nisnDist::total              6556891                       # Number of instructions fetched each cycle (Total) (Count)
system.cpu.fetch.branchRate                  0.314415                       # Number of branch fetches per cycle (Ratio)
system.cpu.fetch.rate                        1.736870                       # Number of inst fetches per cycle ((Count/Cycle))
system.cpu.icache.demandHits::cpu.inst        1776165                       # number of demand (read+write) hits (Count)
system.cpu.icache.demandHits::total           1776165                       # number of demand (read+write) hits (Count)
system.cpu.icache.overallHits::cpu.inst       1776165                       # number of overall hits (Count)
system.cpu.icache.overallHits::total          1776165                       # number of overall hits (Count)
system.cpu.icache.demandMisses::cpu.inst         1346                       # number of demand (read+write) misses (Count)
system.cpu.icache.demandMisses::total            1346                       # number of demand (read+write) misses (Count)
system.cpu.icache.overallMisses::cpu.inst         1346                       # number of overall misses (Count)
system.cpu.icache.overallMisses::total           1346                       # number of overall misses (Count)
system.cpu.icache.demandMissLatency::cpu.inst     74014500                       # number of demand (read+write) miss ticks (Tick)
system.cpu.icache.demandMissLatency::total     74014500                       # number of demand (read+write) miss ticks (Tick)
system.cpu.icache.overallMissLatency::cpu.inst     74014500                       # number of overall miss ticks (Tick)
system.cpu.icache.overallMissLatency::total     74014500                       # number of overall miss ticks (Tick)
system.cpu.icache.demandAccesses::cpu.inst      1777511                       # number of demand (read+write) accesses (Count)
system.cpu.icache.demandAccesses::total       1777511                       # number of demand (read+write) accesses (Count)
system.cpu.icache.overallAccesses::cpu.inst      1777511                       # number of overall (read+write) accesses (Count)
system.cpu.icache.overallAccesses::total      1777511                       # number of overall (read+write) accesses (Count)
system.cpu.icache.demandMissRate::cpu.inst     0.000757                       # miss rate for demand accesses (Ratio)
system.cpu.icache.demandMissRate::total      0.000757                       # miss rate for demand accesses (Ratio)
system.cpu.icache.overallMissRate::cpu.inst     0.000757                       # miss rate for overall accesses (Ratio)
system.cpu.icache.overallMissRate::total     0.000757                       # miss rate for overall accesses (Ratio)
system.cpu.icache.demandAvgMissLatency::cpu.inst 54988.484398                       # average overall miss latency in ticks ((Tick/Count))
system.cpu.icache.demandAvgMissLatency::total 54988.484398                       # average overall miss latency in ticks ((Tick/Count))
system.cpu.icache.overallAvgMissLatency::cpu.inst 54988.484398                       # average overall miss latency ((Tick/Count))
system.cpu.icache.overallAvgMissLatency::total 54988.484398                       # average overall miss latency ((Tick/Count))
system.cpu.icache.blockedCycles::no_mshrs            0                       # number of cycles access was blocked (Cycle)
system.cpu.icache.blockedCycles::no_targets            0                       # number of cycles access was blocked (Cycle)
system.cpu.icache.blockedCauses::no_mshrs            0                       # number of times access was blocked (Count)
system.cpu.icache.blockedCauses::no_targets            0                       # number of times access was blocked (Count)
system.cpu.icache.avgBlocked::no_mshrs            nan                       # average number of cycles each access was blocked ((Cycle/Count))
system.cpu.icache.avgBlocked::no_targets          nan                       # average number of cycles each access was blocked ((Cycle/Count))
system.cpu.icache.writebacks::writebacks          360                       # number of writebacks (Count)
system.cpu.icache.writebacks::total               360                       # number of writebacks (Count)
system.cpu.icache.demandMshrHits::cpu.inst          506                       # number of demand (read+write) MSHR hits (Count)
system.cpu.icache.demandMshrHits::total           506                       # number of demand (read+write) MSHR hits (Count)
system.cpu.icache.overallMshrHits::cpu.inst          506                       # number of overall MSHR hits (Count)
system.cpu.icache.overallMshrHits::total          506                       # number of overall MSHR hits (Count)
system.cpu.icache.demandMshrMisses::cpu.inst          840                       # number of demand (read+write) MSHR misses (Count)
system.cpu.icache.demandMshrMisses::total          840                       # number of demand (read+write) MSHR misses (Count)
system.cpu.icache.overallMshrMisses::cpu.inst          840                       # number of overall MSHR misses (Count)
system.cpu.icache.overallMshrMisses::total          840                       # number of overall MSHR misses (Count)
system.cpu.icache.demandMshrMissLatency::cpu.inst     50673500                       # number of demand (read+write) MSHR miss ticks (Tick)
system.cpu.icache.demandMshrMissLatency::total     50673500                       # number of demand (read+write) MSHR miss ticks (Tick)
system.cpu.icache.overallMshrMissLatency::cpu.inst     50673500                       # number of overall MSHR miss ticks (Tick)
system.cpu.icache.overallMshrMissLatency::total     50673500                       # number of overall MSHR miss ticks (Tick)
system.cpu.icache.demandMshrMissRate::cpu.inst     0.000473                       # mshr miss ratio for demand accesses (Ratio)
system.cpu.icache.demandMshrMissRate::total     0.000473                       # mshr miss ratio for demand accesses (Ratio)
system.cpu.icache.overallMshrMissRate::cpu.inst     0.000473                       # mshr miss ratio for overall accesses (Ratio)
system.cpu.icache.overallMshrMissRate::total     0.000473                       # mshr miss ratio for overall accesses (Ratio)
system.cpu.icache.demandAvgMshrMissLatency::cpu.inst 60325.595238                       # average overall mshr miss latency ((Tick/Count))
system.cpu.icache.demandAvgMshrMissLatency::total 60325.595238                       # average overall mshr miss latency ((Tick/Count))
system.cpu.icache.overallAvgMshrMissLatency::cpu.inst 60325.595238                       # average overall mshr miss latency ((Tick/Count))
system.cpu.icache.overallAvgMshrMissLatency::total 60325.595238                       # average overall mshr miss latency ((Tick/Count))
system.cpu.icache.replacements                    360                       # number of replacements (Count)
system.cpu.icache.ReadReq.hits::cpu.inst      1776165                       # number of ReadReq hits (Count)
system.cpu.icache.ReadReq.hits::total         1776165                       # number of ReadReq hits (Count)
system.cpu.icache.ReadReq.misses::cpu.inst         1346                       # number of ReadReq misses (Count)
system.cpu.icache.ReadReq.misses::total          1346                       # number of ReadReq misses (Count)
system.cpu.icache.ReadReq.missLatency::cpu.inst     74014500                       # number of ReadReq miss ticks (Tick)
system.cpu.icache.ReadReq.missLatency::total     74014500                       # number of ReadReq miss ticks (Tick)
system.cpu.icache.ReadReq.accesses::cpu.inst      1777511                       # number of ReadReq accesses(hits+misses) (Count)
system.cpu.icache.ReadReq.accesses::total      1777511                       # number of ReadReq accesses(hits+misses) (Count)
system.cpu.icache.ReadReq.missRate::cpu.inst     0.000757                       # miss rate for ReadReq accesses (Ratio)
system.cpu.icache.ReadReq.missRate::total     0.000757                       # miss rate for ReadReq accesses (Ratio)
system.cpu.icache.ReadReq.avgMissLatency::cpu.inst 54988.484398                       # average ReadReq miss latency ((Tick/Count))
system.cpu.icache.ReadReq.avgMissLatency::total 54988.484398                       # average ReadReq miss latency ((Tick/Count))
system.cpu.icache.ReadReq.mshrHits::cpu.inst          506                       # number of ReadReq MSHR hits (Count)
system.cpu.icache.ReadReq.mshrHits::total          506                       # number of ReadReq MSHR hits (Count)
system.cpu.icache.ReadReq.mshrMisses::cpu.inst          840                       # number of ReadReq MSHR misses (Count)
system.cpu.icache.ReadReq.mshrMisses::total          840                       # number of ReadReq MSHR misses (Count)
system.cpu.icache.ReadReq.mshrMissLatency::cpu.inst     50673500                       # number of ReadReq MSHR miss ticks (Tick)
system.cpu.icache.ReadReq.mshrMissLatency::total     50673500                       # number of ReadReq MSHR miss ticks (Tick)
system.cpu.icache.ReadReq.mshrMissRate::cpu.inst     0.000473                       # mshr miss rate for ReadReq accesses (Ratio)
system.cpu.icache.ReadReq.mshrMissRate::total     0.000473                       # mshr miss rate for ReadReq accesses (Ratio)
system.cpu.icache.ReadReq.avgMshrMissLatency::cpu.inst 60325.595238                       # average ReadReq mshr miss latency ((Tick/Count))
system.cpu.icache.ReadReq.avgMshrMissLatency::total 60325.595238                       # average ReadReq mshr miss latency ((Tick/Count))
system.cpu.icache.power_state.pwrStateResidencyTicks::UNDEFINED   3300276000                       # Cumulative time (in ticks) in various power states (Tick)
system.cpu.icache.tags.tagsInUse           470.838598                       # Average ticks per tags in use ((Tick/Count))
system.cpu.icache.tags.totalRefs              1777005                       # Total number of references to valid blocks. (Count)
system.cpu.icache.tags.sampledRefs                840                       # Sample count of references to valid blocks. (Count)
system.cpu.icache.tags.avgRefs            2115.482143                       # Average number of references to valid blocks. ((Count/Count))
system.cpu.icache.tags.warmupTick               77000                       # The tick when the warmup percentage was hit. (Tick)
system.cpu.icache.tags.occupancies::cpu.inst   470.838598                       # Average occupied blocks per tick, per requestor ((Count/Tick))
system.cpu.icache.tags.avgOccs::cpu.inst     0.919607                       # Average percentage of cache occupancy ((Ratio/Tick))
system.cpu.icache.tags.avgOccs::total        0.919607                       # Average percentage of cache occupancy ((Ratio/Tick))
system.cpu.icache.tags.occupanciesTaskId::1024          480                       # Occupied blocks per task id (Count)
system.cpu.icache.tags.ageTaskId_1024::3          480                       # Occupied blocks per task id, per block age (Count)
system.cpu.icache.tags.ratioOccsTaskId::1024     0.937500                       # Ratio of occupied blocks and all blocks, per task id (Ratio)
system.cpu.icache.tags.tagAccesses            3555862                       # Number of tag accesses (Count)
system.cpu.icache.tags.dataAccesses           3555862                       # Number of data accesses (Count)
system.cpu.icache.tags.power_state.pwrStateResidencyTicks::UNDEFINED   3300276000                       # Cumulative time (in ticks) in various power states (Tick)
system.cpu.iew.idleCycles                           0                       # Number of cycles IEW is idle (Cycle)
system.cpu.iew.squashCycles                     37456                       # Number of cycles IEW is squashing (Cycle)
system.cpu.iew.blockCycles                     580620                       # Number of cycles IEW is blocking (Cycle)
system.cpu.iew.unblockCycles                    11768                       # Number of cycles IEW is unblocking (Cycle)
system.cpu.iew.dispatchedInsts               20008088                       # Number of instructions dispatched to IQ (Count)
system.cpu.iew.dispSquashedInsts                 3413                       # Number of squashed instructions skipped by dispatch (Count)
system.cpu.iew.dispLoadInsts                  4079994                       # Number of dispatched load instructions (Count)
system.cpu.iew.dispStoreInsts                 1643566                       # Number of dispatched store instructions (Count)
system.cpu.iew.dispNonSpecInsts                   126                       # Number of dispatched non-speculative instructions (Count)
system.cpu.iew.iqFullEvents                      2514                       # Number of times the IQ has become full, causing a stall (Count)
system.cpu.iew.lsqFullEvents                     6248                       # Number of times the LSQ has become full, causing a stall (Count)
system.cpu.iew.memOrderViolationEvents            167                       # Number of memory order violations (Count)
system.cpu.iew.predictedTakenIncorrect           8331                       # Number of branches that were predicted taken incorrectly (Count)
system.cpu.iew.predictedNotTakenIncorrect         7930                       # Number of branches that were predicted not taken incorrectly (Count)
system.cpu.iew.branchMispredicts                16261                       # Number of branch mispredicts detected at execute (Count)
system.cpu.iew.mispredictedLVP                  24564                       # mispredictedLVP (Count)
system.cpu.iew.LvpCorrect                     2729471                       # LvpCorrect (Count)
system.cpu.iew.instsToCommit                 19227579                       # Cumulative count of insts sent to commit (Count)
system.cpu.iew.writebackCount                19213232                       # Cumulative count of insts written-back (Count)
system.cpu.iew.producerInst                  14626803                       # Number of instructions producing a value (Count)
system.cpu.iew.consumerInst                  23135234                       # Number of instructions consuming a value (Count)
system.cpu.iew.wbRate                        2.910852                       # Insts written-back per cycle ((Count/Cycle))
system.cpu.iew.wbFanout                      0.632231                       # Average fanout of values written-back ((Count/Count))
system.cpu.interrupts.clk_domain.clock           8000                       # Clock period in ticks (Tick)
system.cpu.itb_walker_cache.blockedCycles::no_mshrs            0                       # number of cycles access was blocked (Cycle)
system.cpu.itb_walker_cache.blockedCycles::no_targets            0                       # number of cycles access was blocked (Cycle)
system.cpu.itb_walker_cache.blockedCauses::no_mshrs            0                       # number of times access was blocked (Count)
system.cpu.itb_walker_cache.blockedCauses::no_targets            0                       # number of times access was blocked (Count)
system.cpu.itb_walker_cache.avgBlocked::no_mshrs          nan                       # average number of cycles each access was blocked ((Cycle/Count))
system.cpu.itb_walker_cache.avgBlocked::no_targets          nan                       # average number of cycles each access was blocked ((Cycle/Count))
system.cpu.itb_walker_cache.replacements            0                       # number of replacements (Count)
system.cpu.itb_walker_cache.power_state.pwrStateResidencyTicks::UNDEFINED   3300276000                       # Cumulative time (in ticks) in various power states (Tick)
system.cpu.itb_walker_cache.tags.tagsInUse            0                       # Average ticks per tags in use ((Tick/Count))
system.cpu.itb_walker_cache.tags.totalRefs            0                       # Total number of references to valid blocks. (Count)
system.cpu.itb_walker_cache.tags.sampledRefs            0                       # Sample count of references to valid blocks. (Count)
system.cpu.itb_walker_cache.tags.avgRefs          nan                       # Average number of references to valid blocks. ((Count/Count))
system.cpu.itb_walker_cache.tags.warmupTick            0                       # The tick when the warmup percentage was hit. (Tick)
system.cpu.itb_walker_cache.tags.tagAccesses            0                       # Number of tag accesses (Count)
system.cpu.itb_walker_cache.tags.dataAccesses            0                       # Number of data accesses (Count)
system.cpu.itb_walker_cache.tags.power_state.pwrStateResidencyTicks::UNDEFINED   3300276000                       # Cumulative time (in ticks) in various power states (Tick)
system.cpu.lsq0.forwLoads                     1532253                       # Number of loads that had data forwarded from stores (Count)
system.cpu.lsq0.squashedLoads                  268988                       # Number of loads squashed (Count)
system.cpu.lsq0.ignoredResponses                  363                       # Number of memory responses ignored because the instruction is squashed (Count)
system.cpu.lsq0.memOrderViolation                 167                       # Number of memory ordering violations (Count)
system.cpu.lsq0.squashedStores                 101231                       # Number of stores squashed (Count)
system.cpu.lsq0.rescheduledLoads                    0                       # Number of loads that were rescheduled (Count)
system.cpu.lsq0.blockedByCache                    449                       # Number of times an access to memory failed due to the cache being blocked (Count)
system.cpu.lsq0.loadToUse::samples            3810977                       # Distribution of cycle latency between the first time a load is issued and its completion (Unspecified)
system.cpu.lsq0.loadToUse::mean              3.436658                       # Distribution of cycle latency between the first time a load is issued and its completion (Unspecified)
system.cpu.lsq0.loadToUse::stdev            10.249135                       # Distribution of cycle latency between the first time a load is issued and its completion (Unspecified)
system.cpu.lsq0.loadToUse::0-9                3790173     99.45%     99.45% # Distribution of cycle latency between the first time a load is issued and its completion (Unspecified)
system.cpu.lsq0.loadToUse::10-19                  444      0.01%     99.47% # Distribution of cycle latency between the first time a load is issued and its completion (Unspecified)
system.cpu.lsq0.loadToUse::20-29                  196      0.01%     99.47% # Distribution of cycle latency between the first time a load is issued and its completion (Unspecified)
system.cpu.lsq0.loadToUse::30-39                   60      0.00%     99.47% # Distribution of cycle latency between the first time a load is issued and its completion (Unspecified)
system.cpu.lsq0.loadToUse::40-49                  148      0.00%     99.48% # Distribution of cycle latency between the first time a load is issued and its completion (Unspecified)
system.cpu.lsq0.loadToUse::50-59                   84      0.00%     99.48% # Distribution of cycle latency between the first time a load is issued and its completion (Unspecified)
system.cpu.lsq0.loadToUse::60-69                  127      0.00%     99.48% # Distribution of cycle latency between the first time a load is issued and its completion (Unspecified)
system.cpu.lsq0.loadToUse::70-79                  725      0.02%     99.50% # Distribution of cycle latency between the first time a load is issued and its completion (Unspecified)
system.cpu.lsq0.loadToUse::80-89                  875      0.02%     99.52% # Distribution of cycle latency between the first time a load is issued and its completion (Unspecified)
system.cpu.lsq0.loadToUse::90-99                 1133      0.03%     99.55% # Distribution of cycle latency between the first time a load is issued and its completion (Unspecified)
[...]
system.mem_ctrls.dram.perBankWrBursts::1          186                       # Per bank write bursts (Count)
system.mem_ctrls.dram.perBankWrBursts::2           87                       # Per bank write bursts (Count)
system.mem_ctrls.dram.perBankWrBursts::3          122                       # Per bank write bursts (Count)
system.mem_ctrls.dram.perBankWrBursts::4          132                       # Per bank write bursts (Count)
system.mem_ctrls.dram.perBankWrBursts::5          150                       # Per bank write bursts (Count)
system.mem_ctrls.dram.perBankWrBursts::6            4                       # Per bank write bursts (Count)
system.mem_ctrls.dram.perBankWrBursts::7           15                       # Per bank write bursts (Count)
system.mem_ctrls.dram.perBankWrBursts::8           52                       # Per bank write bursts (Count)
system.mem_ctrls.dram.perBankWrBursts::9           74                       # Per bank write bursts (Count)
system.mem_ctrls.dram.perBankWrBursts::10           70                       # Per bank write bursts (Count)
system.mem_ctrls.dram.perBankWrBursts::11           66                       # Per bank write bursts (Count)
system.mem_ctrls.dram.perBankWrBursts::12          182                       # Per bank write bursts (Count)
system.mem_ctrls.dram.perBankWrBursts::13          167                       # Per bank write bursts (Count)
system.mem_ctrls.dram.perBankWrBursts::14          106                       # Per bank write bursts (Count)
system.mem_ctrls.dram.perBankWrBursts::15          193                       # Per bank write bursts (Count)
system.mem_ctrls.dram.totQLat               141562250                       # Total ticks spent queuing (Tick)
system.mem_ctrls.dram.totBusLat              53260000                       # Total ticks spent in databus transfers (Tick)
system.mem_ctrls.dram.totMemAccLat          341287250                       # Total ticks spent from burst creation until serviced by the DRAM (Tick)
system.mem_ctrls.dram.avgQLat                13289.73                       # Average queueing delay per DRAM burst ((Tick/Count))
system.mem_ctrls.dram.avgBusLat               5000.00                       # Average bus latency per DRAM burst ((Tick/Count))
system.mem_ctrls.dram.avgMemAccLat           32039.73                       # Average memory access latency per DRAM burst ((Tick/Count))
system.mem_ctrls.dram.readRowHits                7052                       # Number of row buffer hits during reads (Count)
system.mem_ctrls.dram.writeRowHits               1511                       # Number of row buffer hits during writes (Count)
system.mem_ctrls.dram.readRowHitRate            66.20                       # Row buffer hit rate for reads (Ratio)
system.mem_ctrls.dram.writeRowHitRate           79.32                       # Row buffer hit rate for writes (Ratio)
system.mem_ctrls.dram.bytesPerActivate::samples         3994                       # Bytes accessed per row activation (Byte)
system.mem_ctrls.dram.bytesPerActivate::mean   201.213821                       # Bytes accessed per row activation (Byte)
system.mem_ctrls.dram.bytesPerActivate::gmean   132.927814                       # Bytes accessed per row activation (Byte)
system.mem_ctrls.dram.bytesPerActivate::stdev   232.718941                       # Bytes accessed per row activation (Byte)
system.mem_ctrls.dram.bytesPerActivate::0-127         1787     44.74%     44.74% # Bytes accessed per row activation (Byte)
system.mem_ctrls.dram.bytesPerActivate::128-255         1254     31.40%     76.14% # Bytes accessed per row activation (Byte)
system.mem_ctrls.dram.bytesPerActivate::256-383          389      9.74%     85.88% # Bytes accessed per row activation (Byte)
system.mem_ctrls.dram.bytesPerActivate::384-511          172      4.31%     90.19% # Bytes accessed per row activation (Byte)
system.mem_ctrls.dram.bytesPerActivate::512-639           86      2.15%     92.34% # Bytes accessed per row activation (Byte)
system.mem_ctrls.dram.bytesPerActivate::640-767           71      1.78%     94.12% # Bytes accessed per row activation (Byte)
system.mem_ctrls.dram.bytesPerActivate::768-895           40      1.00%     95.12% # Bytes accessed per row activation (Byte)
system.mem_ctrls.dram.bytesPerActivate::896-1023           26      0.65%     95.77% # Bytes accessed per row activation (Byte)
system.mem_ctrls.dram.bytesPerActivate::1024-1151          169      4.23%    100.00% # Bytes accessed per row activation (Byte)
system.mem_ctrls.dram.bytesPerActivate::total         3994                       # Bytes accessed per row activation (Byte)
system.mem_ctrls.dram.bytesRead                681728                       # Total bytes read (Byte)
system.mem_ctrls.dram.bytesWritten             121920                       # Total bytes written (Byte)
system.mem_ctrls.dram.avgRdBW              206.566966                       # Average DRAM read bandwidth in MiBytes/s ((Byte/Second))
system.mem_ctrls.dram.avgWrBW               36.942365                       # Average DRAM write bandwidth in MiBytes/s ((Byte/Second))
system.mem_ctrls.dram.peakBW                 12800.00                       # Theoretical peak bandwidth in MiByte/s ((Byte/Second))
system.mem_ctrls.dram.busUtil                    1.90                       # Data bus utilization in percentage (Ratio)
system.mem_ctrls.dram.busUtilRead                1.61                       # Data bus utilization in percentage for reads (Ratio)
system.mem_ctrls.dram.busUtilWrite               0.29                       # Data bus utilization in percentage for writes (Ratio)
system.mem_ctrls.dram.pageHitRate               68.19                       # Row buffer hit rate, read and write combined (Ratio)
system.mem_ctrls.dram.power_state.pwrStateResidencyTicks::UNDEFINED   3300276000                       # Cumulative time (in ticks) in various power states (Tick)
system.mem_ctrls.dram.rank0.actEnergy        14244300                       # Energy for activate commands per rank (pJ) (Joule)
system.mem_ctrls.dram.rank0.preEnergy         7571025                       # Energy for precharge commands per rank (pJ) (Joule)
system.mem_ctrls.dram.rank0.readEnergy       42240240                       # Energy for read commands per rank (pJ) (Joule)
system.mem_ctrls.dram.rank0.writeEnergy       5193900                       # Energy for write commands per rank (pJ) (Joule)
system.mem_ctrls.dram.rank0.refreshEnergy 259992720.000000                       # Energy for refresh commands per rank (pJ) (Joule)
system.mem_ctrls.dram.rank0.actBackEnergy    463596960                       # Energy for active background per rank (pJ) (Joule)
system.mem_ctrls.dram.rank0.preBackEnergy    876908640                       # Energy for precharge background per rank (pJ) (Joule)
system.mem_ctrls.dram.rank0.actPowerDownEnergy            0                       # Energy for active power-down per rank (pJ) (Joule)
system.mem_ctrls.dram.rank0.prePowerDownEnergy            0                       # Energy for precharge power-down per rank (pJ) (Joule)
system.mem_ctrls.dram.rank0.selfRefreshEnergy            0                       # Energy for self refresh per rank (pJ) (Joule)
system.mem_ctrls.dram.rank0.totalEnergy    1669747785                       # Total energy per rank (pJ) (Joule)
system.mem_ctrls.dram.rank0.averagePower   505.941862                       # Core power per rank (mW) (Watt)
system.mem_ctrls.dram.rank0.totalIdleTime            0                       # Total Idle time Per DRAM Rank (Tick)
system.mem_ctrls.dram.rank0.pwrStateTime::IDLE   2275487000                       # Time in different power states (Tick)
system.mem_ctrls.dram.rank0.pwrStateTime::REF    109980000                       # Time in different power states (Tick)
system.mem_ctrls.dram.rank0.pwrStateTime::SREF            0                       # Time in different power states (Tick)
system.mem_ctrls.dram.rank0.pwrStateTime::PRE_PDN            0                       # Time in different power states (Tick)
system.mem_ctrls.dram.rank0.pwrStateTime::ACT    914809000                       # Time in different power states (Tick)
system.mem_ctrls.dram.rank0.pwrStateTime::ACT_PDN            0                       # Time in different power states (Tick)
system.mem_ctrls.dram.rank1.actEnergy        14272860                       # Energy for activate commands per rank (pJ) (Joule)
system.mem_ctrls.dram.rank1.preEnergy         7586205                       # Energy for precharge commands per rank (pJ) (Joule)
system.mem_ctrls.dram.rank1.readEnergy       33815040                       # Energy for read commands per rank (pJ) (Joule)
system.mem_ctrls.dram.rank1.writeEnergy       4750200                       # Energy for write commands per rank (pJ) (Joule)
system.mem_ctrls.dram.rank1.refreshEnergy 259992720.000000                       # Energy for refresh commands per rank (pJ) (Joule)
system.mem_ctrls.dram.rank1.actBackEnergy    441219900                       # Energy for active background per rank (pJ) (Joule)
system.mem_ctrls.dram.rank1.preBackEnergy    895752480                       # Energy for precharge background per rank (pJ) (Joule)
system.mem_ctrls.dram.rank1.actPowerDownEnergy            0                       # Energy for active power-down per rank (pJ) (Joule)
system.mem_ctrls.dram.rank1.prePowerDownEnergy            0                       # Energy for precharge power-down per rank (pJ) (Joule)
system.mem_ctrls.dram.rank1.selfRefreshEnergy            0                       # Energy for self refresh per rank (pJ) (Joule)
system.mem_ctrls.dram.rank1.totalEnergy    1657389405                       # Total energy per rank (pJ) (Joule)
system.mem_ctrls.dram.rank1.averagePower   502.197212                       # Core power per rank (mW) (Watt)
system.mem_ctrls.dram.rank1.totalIdleTime            0                       # Total Idle time Per DRAM Rank (Tick)
system.mem_ctrls.dram.rank1.pwrStateTime::IDLE   2324891750                       # Time in different power states (Tick)
system.mem_ctrls.dram.rank1.pwrStateTime::REF    109980000                       # Time in different power states (Tick)
system.mem_ctrls.dram.rank1.pwrStateTime::SREF            0                       # Time in different power states (Tick)
system.mem_ctrls.dram.rank1.pwrStateTime::PRE_PDN            0                       # Time in different power states (Tick)
system.mem_ctrls.dram.rank1.pwrStateTime::ACT    865404250                       # Time in different power states (Tick)
system.mem_ctrls.dram.rank1.pwrStateTime::ACT_PDN            0                       # Time in different power states (Tick)
system.mem_ctrls.power_state.pwrStateResidencyTicks::UNDEFINED   3300276000                       # Cumulative time (in ticks) in various power states (Tick)
system.membus.transDist::ReadResp                8805                       # Transaction distribution (Count)
system.membus.transDist::WritebackDirty          1655                       # Transaction distribution (Count)
system.membus.transDist::WritebackClean           360                       # Transaction distribution (Count)
system.membus.transDist::CleanEvict              7331                       # Transaction distribution (Count)
system.membus.transDist::ReadExReq               2045                       # Transaction distribution (Count)
system.membus.transDist::ReadExResp              2045                       # Transaction distribution (Count)
system.membus.transDist::ReadCleanReq             840                       # Transaction distribution (Count)
system.membus.transDist::ReadSharedReq           7965                       # Transaction distribution (Count)
system.membus.pktCount_system.cpu.icache.mem_side_port::system.mem_ctrls.port         2040                       # Packet count per connected requestor and responder (Count)
system.membus.pktCount_system.cpu.icache.mem_side_port::total         2040                       # Packet count per connected requestor and responder (Count)
system.membus.pktCount_system.cpu.dcache.mem_side_port::system.mem_ctrls.port        29006                       # Packet count per connected requestor and responder (Count)
system.membus.pktCount_system.cpu.dcache.mem_side_port::total        29006                       # Packet count per connected requestor and responder (Count)
system.membus.pktCount::total                   31046                       # Packet count per connected requestor and responder (Count)
system.membus.pktSize_system.cpu.icache.mem_side_port::system.mem_ctrls.port        76800                       # Cumulative packet size per connected requestor and responder (Byte)
system.membus.pktSize_system.cpu.icache.mem_side_port::total        76800                       # Cumulative packet size per connected requestor and responder (Byte)
system.membus.pktSize_system.cpu.dcache.mem_side_port::system.mem_ctrls.port       746560                       # Cumulative packet size per connected requestor and responder (Byte)
system.membus.pktSize_system.cpu.dcache.mem_side_port::total       746560                       # Cumulative packet size per connected requestor and responder (Byte)
system.membus.pktSize::total                   823360                       # Cumulative packet size per connected requestor and responder (Byte)
system.membus.snoops                                0                       # Total snoops (Count)
system.membus.snoopTraffic                          0                       # Total snoop traffic (Byte)
system.membus.snoopFanout::samples              10850                       # Request fanout histogram (Count)
system.membus.snoopFanout::mean              0.000553                       # Request fanout histogram (Count)
system.membus.snoopFanout::stdev             0.023510                       # Request fanout histogram (Count)
system.membus.snoopFanout::underflows               0      0.00%      0.00% # Request fanout histogram (Count)
system.membus.snoopFanout::0                    10844     99.94%     99.94% # Request fanout histogram (Count)
system.membus.snoopFanout::1                        6      0.06%    100.00% # Request fanout histogram (Count)
system.membus.snoopFanout::2                        0      0.00%    100.00% # Request fanout histogram (Count)
system.membus.snoopFanout::3                        0      0.00%    100.00% # Request fanout histogram (Count)
system.membus.snoopFanout::4                        0      0.00%    100.00% # Request fanout histogram (Count)
system.membus.snoopFanout::overflows                0      0.00%    100.00% # Request fanout histogram (Count)
system.membus.snoopFanout::min_value                0                       # Request fanout histogram (Count)
system.membus.snoopFanout::max_value                1                       # Request fanout histogram (Count)
system.membus.snoopFanout::total                10850                       # Request fanout histogram (Count)
system.membus.power_state.pwrStateResidencyTicks::UNDEFINED   3300276000                       # Cumulative time (in ticks) in various power states (Tick)
system.membus.reqLayer2.occupancy            30511500                       # Layer occupancy (ticks) (Tick)
system.membus.reqLayer2.utilization               0.0                       # Layer utilization (Ratio)
system.membus.respLayer1.occupancy            4457500                       # Layer occupancy (ticks) (Tick)
system.membus.respLayer1.utilization              0.0                       # Layer utilization (Ratio)
system.membus.respLayer2.occupancy           53649500                       # Layer occupancy (ticks) (Tick)
system.membus.respLayer2.utilization              0.0                       # Layer utilization (Ratio)
system.membus.snoop_filter.totRequests          20196                       # Total number of requests made to the snoop filter. (Count)
system.membus.snoop_filter.hitSingleRequests         9347                       # Number of requests hitting in the snoop filter with a single holder of the requested data. (Count)
system.membus.snoop_filter.hitMultiRequests            5                       # Number of requests hitting in the snoop filter with multiple (>1) holders of the requested data. (Count)
system.membus.snoop_filter.totSnoops                0                       # Total number of snoops made to the snoop filter. (Count)
system.membus.snoop_filter.hitSingleSnoops            0                       # Number of snoops hitting in the snoop filter with a single holder of the requested data. (Count)
system.membus.snoop_filter.hitMultiSnoops            0                       # Number of snoops hitting in the snoop filter with multiple (>1) holders of the requested data. (Count)
system.voltage_domain.voltage                       1                       # Voltage in Volts (Volt)
system.workload.inst.arm                            0                       # number of arm instructions executed (Count)
system.workload.inst.quiesce                        0                       # number of quiesce instructions executed (Count)
system.cpu.loadValPred.constant_verification_unit.constLoadHits      1697077                       # Number of loads marked constant that hit in the CVU CAM (Unspecified)
system.cpu.loadValPred.constant_verification_unit.constLoadMisses       524642                       # Number of loads marked constant that missed in the CVU CAM (Unspecified)
system.cpu.loadValPred.constant_verification_unit.numCAMReplacements        50528                       # Number of CVU CAM entries replaced (Unspecified)
system.cpu.loadValPred.constant_verification_unit.numLoadAccesses      2221719                       # Number of loads marked constant which accessed the CVU (Unspecified)
system.cpu.loadValPred.constant_verification_unit.numStoreAccesses      1601879                       # Number of store instructions which accessed the CVU (Unspecified)
system.cpu.loadValPred.constant_verification_unit.numStoreHits       474427                       # Number of stores that hit in the CVU CAM (Unspecified)
system.cpu.loadValPred.constant_verification_unit.numStoreMisses      1127452                       # Number of stores that missed in the CVU CAM (Unspecified)
system.cpu.loadValPred.correctTotal           2729471                       # Number predictions corrects for predictable verification (Unspecified)
system.cpu.loadValPred.numConstLoads          2233505                       # Number of loads classified as constant (Unspecified)
system.cpu.loadValPred.numConstLoadsCorrect      1697077                       # Number of constant loads correctly predicted (Unspecified)
system.cpu.loadValPred.numConstLoadsMispredicted       524642                       # Number of constant loads incorrectly predicted (Unspecified)
system.cpu.loadValPred.numConstValOne           18353                       # Number of constant loads with value 1 (Unspecified)
system.cpu.loadValPred.numConstValZero          68552                       # Number of constant loads with value 0 (Unspecified)
system.cpu.loadValPred.numPredictableLoads       537279                       # Number of loads classified as predictable (Unspecified)
system.cpu.loadValPred.numPredictableLoadsCorrect       524653                       # Number of loads correctly classified as predictable (Unspecified)
system.cpu.loadValPred.numPredictableLoadsIncorrect         7663                       # Number of loads incorrectly classified as predictable (Unspecified)
system.cpu.loadValPred.totalLoads             3975644                       # Total loads processed by the Load value predictor (Unspecified)
system.cpu.loadValPred.valueLocalityNumerator      2761251                       # Number predictions corrects (Unspecified)

---------- End Simulation Statistics   ----------
