
---------- Begin Simulation Statistics ----------
simSeconds                                   0.095177                       # Number of seconds simulated (Second)
simTicks                                  95176649500                       # Number of ticks simulated (Tick)
finalTick                                 95176649500                       # Number of ticks from beginning of simulation (restored from checkpoints and never reset) (Tick)
simFreq                                  1000000000000                       # The number of ticks per simulated second ((Tick/Second))
hostSeconds                                    333.47                       # Real time elapsed on the host (Second)
hostTickRate                                285412485                       # The number of ticks simulated per host second (ticks/s) ((Tick/Second))
hostMemory                                    8729652                       # Number of bytes of host memory used (Byte)
simInsts                                     10000000                       # Number of instructions simulated (Count)
simOps                                       19972351                       # Number of ops (including micro ops) simulated (Count)
hostInstRate                                    29988                       # Simulator instruction rate (inst/s) ((Count/Second))
hostOpRate                                      59892                       # Simulator op (including micro ops) rate (op/s) ((Count/Second))
system.clk_domain.clock                          1000                       # Clock period in ticks (Tick)
system.cpu.numCycles                        190353300                       # Number of cpu cycles simulated (Cycle)
system.cpu.numWorkItemsStarted                      0                       # Number of work items this cpu started (Count)
system.cpu.numWorkItemsCompleted                    0                       # Number of work items this cpu completed (Count)
system.cpu.instsAdded                        21593341                       # Number of instructions added to the IQ (excludes non-spec) (Count)
system.cpu.nonSpecInstsAdded                      208                       # Number of non-speculative instructions added to the IQ (Count)
system.cpu.instsIssued                       21455581                       # Number of instructions issued (Count)
system.cpu.squashedInstsIssued                   1475                       # Number of squashed instructions issued (Count)
system.cpu.squashedInstsExamined              1621197                       # Number of squashed instructions iterated over during squash; mainly for profiling (Count)
system.cpu.squashedOperandsExamined           3487483                       # Number of squashed operands that are examined and possibly removed from graph (Count)
system.cpu.squashedNonSpecRemoved                 145                       # Number of squashed non-spec instructions that were removed (Count)
system.cpu.numIssuedDist::samples           190281226                       # Number of insts issued each cycle (Count)
system.cpu.numIssuedDist::mean               0.112757                       # Number of insts issued each cycle (Count)
system.cpu.numIssuedDist::stdev              0.464308                       # Number of insts issued each cycle (Count)
system.cpu.numIssuedDist::underflows                0      0.00%      0.00% # Number of insts issued each cycle (Count)
system.cpu.numIssuedDist::0                 174214936     91.56%     91.56% # Number of insts issued each cycle (Count)
system.cpu.numIssuedDist::1                  13825671      7.27%     98.82% # Number of insts issued each cycle (Count)
system.cpu.numIssuedDist::2                    529578      0.28%     99.10% # Number of insts issued each cycle (Count)
system.cpu.numIssuedDist::3                    753918      0.40%     99.50% # Number of insts issued each cycle (Count)
system.cpu.numIssuedDist::4                    769881      0.40%     99.90% # Number of insts issued each cycle (Count)
system.cpu.numIssuedDist::5                     66239      0.03%     99.94% # Number of insts issued each cycle (Count)
system.cpu.numIssuedDist::6                     19589      0.01%     99.95% # Number of insts issued each cycle (Count)
system.cpu.numIssuedDist::7                     30565      0.02%     99.96% # Number of insts issued each cycle (Count)
system.cpu.numIssuedDist::8                     70849      0.04%    100.00% # Number of insts issued each cycle (Count)
system.cpu.numIssuedDist::overflows                 0      0.00%    100.00% # Number of insts issued each cycle (Count)
system.cpu.numIssuedDist::min_value                 0                       # Number of insts issued each cycle (Count)
system.cpu.numIssuedDist::max_value                 8                       # Number of insts issued each cycle (Count)
system.cpu.numIssuedDist::total             190281226                       # Number of insts issued each cycle (Count)
system.cpu.statFuBusy::No_OpClass                   0      0.00%      0.00% # attempts to use FU when none available (Count)
system.cpu.statFuBusy::IntAlu                    5812      4.95%      4.95% # attempts to use FU when none available (Count)
system.cpu.statFuBusy::IntMult                      0      0.00%      4.95% # attempts to use FU when none available (Count)
system.cpu.statFuBusy::IntDiv                       0      0.00%      4.95% # attempts to use FU when none available (Count)
system.cpu.statFuBusy::FloatAdd                     0      0.00%      4.95% # attempts to use FU when none available (Count)
system.cpu.statFuBusy::FloatCmp                     0      0.00%      4.95% # attempts to use FU when none available (Count)
system.cpu.statFuBusy::FloatCvt                     0      0.00%      4.95% # attempts to use FU when none available (Count)
system.cpu.statFuBusy::FloatMult                    0      0.00%      4.95% # attempts to use FU when none available (Count)
system.cpu.statFuBusy::FloatMultAcc                 0      0.00%      4.95% # attempts to use FU when none available (Count)
system.cpu.statFuBusy::FloatDiv                     0      0.00%      4.95% # attempts to use FU when none available (Count)
system.cpu.statFuBusy::FloatMisc                    0      0.00%      4.95% # attempts to use FU when none available (Count)
system.cpu.statFuBusy::FloatSqrt                    0      0.00%      4.95% # attempts to use FU when none available (Count)
system.cpu.statFuBusy::SimdAdd                      0      0.00%      4.95% # attempts to use FU when none available (Count)
system.cpu.statFuBusy::SimdAddAcc                   0      0.00%      4.95% # attempts to use FU when none available (Count)
system.cpu.statFuBusy::SimdAlu                      5      0.00%      4.96% # attempts to use FU when none available (Count)
system.cpu.statFuBusy::SimdCmp                      0      0.00%      4.96% # attempts to use FU when none available (Count)
system.cpu.statFuBusy::SimdCvt                      0      0.00%      4.96% # attempts to use FU when none available (Count)
system.cpu.statFuBusy::SimdMisc                     0      0.00%      4.96% # attempts to use FU when none available (Count)
system.cpu.statFuBusy::SimdMult                     0      0.00%      4.96% # attempts to use FU when none available (Count)
system.cpu.statFuBusy::SimdMultAcc                  0      0.00%      4.96% # attempts to use FU when none available (Count)
system.cpu.statFuBusy::SimdShift                    0      0.00%      4.96% # attempts to use FU when none available (Count)
system.cpu.statFuBusy::SimdShiftAcc                 0      0.00%      4.96% # attempts to use FU when none available (Count)
system.cpu.statFuBusy::SimdDiv                      0      0.00%      4.96% # attempts to use FU when none available (Count)
system.cpu.statFuBusy::SimdSqrt                     0      0.00%      4.96% # attempts to use FU when none available (Count)
system.cpu.statFuBusy::SimdFloatAdd                 0      0.00%      4.96% # attempts to use FU when none available (Count)
system.cpu.statFuBusy::SimdFloatAlu                 0      0.00%      4.96% # attempts to use FU when none available (Count)
system.cpu.statFuBusy::SimdFloatCmp                 0      0.00%      4.96% # attempts to use FU when none available (Count)
system.cpu.statFuBusy::SimdFloatCvt                 0      0.00%      4.96% # attempts to use FU when none available (Count)
system.cpu.statFuBusy::SimdFloatDiv                 0      0.00%      4.96% # attempts to use FU when none available (Count)
system.cpu.statFuBusy::SimdFloatMisc                0      0.00%      4.96% # attempts to use FU when none available (Count)
system.cpu.statFuBusy::SimdFloatMult                0      0.00%      4.96% # attempts to use FU when none available (Count)
system.cpu.statFuBusy::SimdFloatMultAcc             0      0.00%      4.96% # attempts to use FU when none available (Count)
system.cpu.statFuBusy::SimdFloatSqrt                0      0.00%      4.96% # attempts to use FU when none available (Count)
system.cpu.statFuBusy::SimdReduceAdd                0      0.00%      4.96% # attempts to use FU when none available (Count)
system.cpu.statFuBusy::SimdReduceAlu                0      0.00%      4.96% # attempts to use FU when none available (Count)
system.cpu.statFuBusy::SimdReduceCmp                0      0.00%      4.96% # attempts to use FU when none available (Count)
system.cpu.statFuBusy::SimdFloatReduceAdd            0      0.00%      4.96% # attempts to use FU when none available (Count)
system.cpu.statFuBusy::SimdFloatReduceCmp            0      0.00%      4.96% # attempts to use FU when none available (Count)
system.cpu.statFuBusy::SimdAes                      0      0.00%      4.96% # attempts to use FU when none available (Count)
system.cpu.statFuBusy::SimdAesMix                   0      0.00%      4.96% # attempts to use FU when none available (Count)
system.cpu.statFuBusy::SimdSha1Hash                 0      0.00%      4.96% # attempts to use FU when none available (Count)
system.cpu.statFuBusy::SimdSha1Hash2                0      0.00%      4.96% # attempts to use FU when none available (Count)
system.cpu.statFuBusy::SimdSha256Hash               0      0.00%      4.96% # attempts to use FU when none available (Count)
system.cpu.statFuBusy::SimdSha256Hash2              0      0.00%      4.96% # attempts to use FU when none available (Count)
system.cpu.statFuBusy::SimdShaSigma2                0      0.00%      4.96% # attempts to use FU when none available (Count)
system.cpu.statFuBusy::SimdShaSigma3                0      0.00%      4.96% # attempts to use FU when none available (Count)
system.cpu.statFuBusy::SimdPredAlu                  0      0.00%      4.96% # attempts to use FU when none available (Count)
system.cpu.statFuBusy::MemRead                    870      0.74%      5.70% # attempts to use FU when none available (Count)
system.cpu.statFuBusy::MemWrite                  1054      0.90%      6.60% # attempts to use FU when none available (Count)
system.cpu.statFuBusy::FloatMemRead                86      0.07%      6.67% # attempts to use FU when none available (Count)
system.cpu.statFuBusy::FloatMemWrite           109486     93.33%    100.00% # attempts to use FU when none available (Count)
system.cpu.statFuBusy::IprAccess                    0      0.00%    100.00% # attempts to use FU when none available (Count)
system.cpu.statFuBusy::InstPrefetch                 0      0.00%    100.00% # attempts to use FU when none available (Count)
system.cpu.statIssuedInstType_0::No_OpClass         2272      0.01%      0.01% # Number of instructions issued per FU type, per thread (Count)
system.cpu.statIssuedInstType_0::IntAlu       9420106     43.91%     43.92% # Number of instructions issued per FU type, per thread (Count)
system.cpu.statIssuedInstType_0::IntMult          106      0.00%     43.92% # Number of instructions issued per FU type, per thread (Count)
system.cpu.statIssuedInstType_0::IntDiv          1954      0.01%     43.93% # Number of instructions issued per FU type, per thread (Count)
system.cpu.statIssuedInstType_0::FloatAdd          120      0.00%     43.93% # Number of instructions issued per FU type, per thread (Count)
system.cpu.statIssuedInstType_0::FloatCmp            0      0.00%     43.93% # Number of instructions issued per FU type, per thread (Count)
system.cpu.statIssuedInstType_0::FloatCvt          112      0.00%     43.93% # Number of instructions issued per FU type, per thread (Count)
system.cpu.statIssuedInstType_0::FloatMult            0      0.00%     43.93% # Number of instructions issued per FU type, per thread (Count)
system.cpu.statIssuedInstType_0::FloatMultAcc            0      0.00%     43.93% # Number of instructions issued per FU type, per thread (Count)
system.cpu.statIssuedInstType_0::FloatDiv            0      0.00%     43.93% # Number of instructions issued per FU type, per thread (Count)
system.cpu.statIssuedInstType_0::FloatMisc            0      0.00%     43.93% # Number of instructions issued per FU type, per thread (Count)
system.cpu.statIssuedInstType_0::FloatSqrt            0      0.00%     43.93% # Number of instructions issued per FU type, per thread (Count)
system.cpu.statIssuedInstType_0::SimdAdd           19      0.00%     43.93% # Number of instructions issued per FU type, per thread (Count)
system.cpu.statIssuedInstType_0::SimdAddAcc            0      0.00%     43.93% # Number of instructions issued per FU type, per thread (Count)
system.cpu.statIssuedInstType_0::SimdAlu          171      0.00%     43.93% # Number of instructions issued per FU type, per thread (Count)
system.cpu.statIssuedInstType_0::SimdCmp            0      0.00%     43.93% # Number of instructions issued per FU type, per thread (Count)
system.cpu.statIssuedInstType_0::SimdCvt          282      0.00%     43.93% # Number of instructions issued per FU type, per thread (Count)
system.cpu.statIssuedInstType_0::SimdMisc          463      0.00%     43.93% # Number of instructions issued per FU type, per thread (Count)
system.cpu.statIssuedInstType_0::SimdMult            0      0.00%     43.93% # Number of instructions issued per FU type, per thread (Count)
system.cpu.statIssuedInstType_0::SimdMultAcc            0      0.00%     43.93% # Number of instructions issued per FU type, per thread (Count)
system.cpu.statIssuedInstType_0::SimdShift           45      0.00%     43.93% # Number of instructions issued per FU type, per thread (Count)
system.cpu.statIssuedInstType_0::SimdShiftAcc            0      0.00%     43.93% # Number of instructions issued per FU type, per thread (Count)
system.cpu.statIssuedInstType_0::SimdDiv            0      0.00%     43.93% # Number of instructions issued per FU type, per thread (Count)
system.cpu.statIssuedInstType_0::SimdSqrt            0      0.00%     43.93% # Number of instructions issued per FU type, per thread (Count)
system.cpu.statIssuedInstType_0::SimdFloatAdd            0      0.00%     43.93% # Number of instructions issued per FU type, per thread (Count)
system.cpu.statIssuedInstType_0::SimdFloatAlu            0      0.00%     43.93% # Number of instructions issued per FU type, per thread (Count)
system.cpu.statIssuedInstType_0::SimdFloatCmp            0      0.00%     43.93% # Number of instructions issued per FU type, per thread (Count)
system.cpu.statIssuedInstType_0::SimdFloatCvt            0      0.00%     43.93% # Number of instructions issued per FU type, per thread (Count)
system.cpu.statIssuedInstType_0::SimdFloatDiv            0      0.00%     43.93% # Number of instructions issued per FU type, per thread (Count)
system.cpu.statIssuedInstType_0::SimdFloatMisc            0      0.00%     43.93% # Number of instructions issued per FU type, per thread (Count)
system.cpu.statIssuedInstType_0::SimdFloatMult            0      0.00%     43.93% # Number of instructions issued per FU type, per thread (Count)
system.cpu.statIssuedInstType_0::SimdFloatMultAcc            0      0.00%     43.93% # Number of instructions issued per FU type, per thread (Count)
system.cpu.statIssuedInstType_0::SimdFloatSqrt            0      0.00%     43.93% # Number of instructions issued per FU type, per thread (Count)
system.cpu.statIssuedInstType_0::SimdReduceAdd            0      0.00%     43.93% # Number of instructions issued per FU type, per thread (Count)
system.cpu.statIssuedInstType_0::SimdReduceAlu            0      0.00%     43.93% # Number of instructions issued per FU type, per thread (Count)
system.cpu.statIssuedInstType_0::SimdReduceCmp            0      0.00%     43.93% # Number of instructions issued per FU type, per thread (Count)
system.cpu.statIssuedInstType_0::SimdFloatReduceAdd            0      0.00%     43.93% # Number of instructions issued per FU type, per thread (Count)
system.cpu.statIssuedInstType_0::SimdFloatReduceCmp            0      0.00%     43.93% # Number of instructions issued per FU type, per thread (Count)
system.cpu.statIssuedInstType_0::SimdAes            0      0.00%     43.93% # Number of instructions issued per FU type, per thread (Count)
system.cpu.statIssuedInstType_0::SimdAesMix            0      0.00%     43.93% # Number of instructions issued per FU type, per thread (Count)
system.cpu.statIssuedInstType_0::SimdSha1Hash            0      0.00%     43.93% # Number of instructions issued per FU type, per thread (Count)
system.cpu.statIssuedInstType_0::SimdSha1Hash2            0      0.00%     43.93% # Number of instructions issued per FU type, per thread (Count)
system.cpu.statIssuedInstType_0::SimdSha256Hash            0      0.00%     43.93% # Number of instructions issued per FU type, per thread (Count)
system.cpu.statIssuedInstType_0::SimdSha256Hash2            0      0.00%     43.93% # Number of instructions issued per FU type, per thread (Count)
system.cpu.statIssuedInstType_0::SimdShaSigma2            0      0.00%     43.93% # Number of instructions issued per FU type, per thread (Count)
system.cpu.statIssuedInstType_0::SimdShaSigma3            0      0.00%     43.93% # Number of instructions issued per FU type, per thread (Count)
system.cpu.statIssuedInstType_0::SimdPredAlu            0      0.00%     43.93% # Number of instructions issued per FU type, per thread (Count)
system.cpu.statIssuedInstType_0::MemRead        91671      0.43%     44.36% # Number of instructions issued per FU type, per thread (Count)
system.cpu.statIssuedInstType_0::MemWrite        29476      0.14%     44.50% # Number of instructions issued per FU type, per thread (Count)
system.cpu.statIssuedInstType_0::FloatMemRead          698      0.00%     44.50% # Number of instructions issued per FU type, per thread (Count)
system.cpu.statIssuedInstType_0::FloatMemWrite     11908086     55.50%    100.00% # Number of instructions issued per FU type, per thread (Count)
system.cpu.statIssuedInstType_0::IprAccess            0      0.00%    100.00% # Number of instructions issued per FU type, per thread (Count)
system.cpu.statIssuedInstType_0::InstPrefetch            0      0.00%    100.00% # Number of instructions issued per FU type, per thread (Count)
system.cpu.statIssuedInstType_0::total       21455581                       # Number of instructions issued per FU type, per thread (Count)
system.cpu.issueRate                         0.112715                       # Inst issue rate ((Count/Cycle))
system.cpu.fuBusy                              117313                       # FU busy when requested (Count)
system.cpu.fuBusyRate                        0.005468                       # FU busy rate (busy events/executed inst) ((Count/Count))
system.cpu.intInstQueueReads                209381281                       # Number of integer instruction queue reads (Count)
system.cpu.intInstQueueWrites                10602863                       # Number of integer instruction queue writes (Count)
system.cpu.intInstQueueWakeupAccesses         9510044                       # Number of integer instruction queue wakeup accesses (Count)
system.cpu.fpInstQueueReads                  23929894                       # Number of floating instruction queue reads (Count)
system.cpu.fpInstQueueWrites                 12611971                       # Number of floating instruction queue writes (Count)
system.cpu.fpInstQueueWakeupAccesses         11253202                       # Number of floating instruction queue wakeup accesses (Count)
system.cpu.vecInstQueueReads                        0                       # Number of vector instruction queue reads (Count)
system.cpu.vecInstQueueWrites                       0                       # Number of vector instruction queue writes (Count)
system.cpu.vecInstQueueWakeupAccesses               0                       # Number of vector instruction queue wakeup accesses (Count)
system.cpu.intAluAccesses                     9550905                       # Number of integer alu accesses (Count)
system.cpu.fpAluAccesses                     12019717                       # Number of floating point alu accesses (Count)
system.cpu.vecAluAccesses                           0                       # Number of vector alu accesses (Count)
system.cpu.numInsts                          21435934                       # Number of executed instructions (Count)
system.cpu.numLoadInsts                         88108                       # Number of load instructions executed (Count)
system.cpu.numSquashedInsts                     19646                       # Number of squashed instructions skipped in execute (Count)
system.cpu.numSwp                                   0                       # Number of swp insts executed (Count)
system.cpu.numNop                                   0                       # Number of nop insts executed (Count)
system.cpu.numRefs                           12024277                       # Number of memory reference insts executed (Count)
system.cpu.numBranches                        1547568                       # Number of branches executed (Count)
system.cpu.numStoreInsts                     11936169                       # Number of stores executed (Count)
system.cpu.numRate                           0.112611                       # Inst execution rate ((Count/Cycle))
system.cpu.timesIdled                             875                       # Number of times that the entire CPU went into an idle state and unscheduled itself (Count)
system.cpu.idleCycles                           72074                       # Total number of cycles that the CPU has spent unscheduled due to idling (Cycle)
system.cpu.committedInsts                    10000000                       # Number of Instructions Simulated (Count)
system.cpu.committedOps                      19972351                       # Number of Ops (including micro ops) Simulated (Count)
system.cpu.cpi                              19.035330                       # CPI: Cycles Per Instruction ((Cycle/Count))
system.cpu.totalCpi                         19.035330                       # CPI: Total CPI of All Threads ((Cycle/Count))
system.cpu.ipc                               0.052534                       # IPC: Instructions Per Cycle ((Count/Cycle))
system.cpu.totalIpc                          0.052534                       # IPC: Total IPC of All Threads ((Count/Cycle))
system.cpu.intRegfileReads                   21648296                       # Number of integer regfile reads (Count)
system.cpu.intRegfileWrites                   6444900                       # Number of integer regfile writes (Count)
system.cpu.fpRegfileReads                    11911306                       # Number of floating regfile reads (Count)
system.cpu.fpRegfileWrites                       1832                       # Number of floating regfile writes (Count)
system.cpu.ccRegfileReads                     7743708                       # number of cc regfile reads (Count)
system.cpu.ccRegfileWrites                    6157141                       # number of cc regfile writes (Count)
system.cpu.miscRegfileReads                  15142681                       # number of misc regfile reads (Count)
system.cpu.miscRegfileWrites                       63                       # number of misc regfile writes (Count)
system.cpu.MemDepUnit__0.insertedLoads         107163                       # Number of loads inserted to the mem dependence unit. (Count)
system.cpu.MemDepUnit__0.insertedStores      11942605                       # Number of stores inserted to the mem dependence unit. (Count)
system.cpu.MemDepUnit__0.conflictingLoads         2164                       # Number of conflicting loads. (Count)
system.cpu.MemDepUnit__0.conflictingStores         1486                       # Number of conflicting stores. (Count)
system.cpu.MemDepUnit__1.insertedLoads              0                       # Number of loads inserted to the mem dependence unit. (Count)
system.cpu.MemDepUnit__1.insertedStores             0                       # Number of stores inserted to the mem dependence unit. (Count)
system.cpu.MemDepUnit__1.conflictingLoads            0                       # Number of conflicting loads. (Count)
system.cpu.MemDepUnit__1.conflictingStores            0                       # Number of conflicting stores. (Count)
system.cpu.MemDepUnit__2.insertedLoads              0                       # Number of loads inserted to the mem dependence unit. (Count)
system.cpu.MemDepUnit__2.insertedStores             0                       # Number of stores inserted to the mem dependence unit. (Count)
system.cpu.MemDepUnit__2.conflictingLoads            0                       # Number of conflicting loads. (Count)
system.cpu.MemDepUnit__2.conflictingStores            0                       # Number of conflicting stores. (Count)
system.cpu.MemDepUnit__3.insertedLoads              0                       # Number of loads inserted to the mem dependence unit. (Count)
system.cpu.MemDepUnit__3.insertedStores             0                       # Number of stores inserted to the mem dependence unit. (Count)
system.cpu.MemDepUnit__3.conflictingLoads            0                       # Number of conflicting loads. (Count)
system.cpu.MemDepUnit__3.conflictingStores            0                       # Number of conflicting stores. (Count)
system.cpu.branchPred.lookups                 1669997                       # Number of BP lookups (Count)
system.cpu.branchPred.condPredicted           1653807                       # Number of conditional branches predicted (Count)
system.cpu.branchPred.condIncorrect              6230                       # Number of conditional branches incorrect (Count)
system.cpu.branchPred.BTBLookups              1613327                       # Number of BTB lookups (Count)
system.cpu.branchPred.BTBHits                 1610525                       # Number of BTB hits (Count)
system.cpu.branchPred.BTBHitRatio            0.998263                       # BTB Hit Ratio (Ratio)
system.cpu.branchPred.RASUsed                    4091                       # Number of times the RAS was used to get a target. (Count)
system.cpu.branchPred.RASIncorrect                  6                       # Number of incorrect RAS predictions. (Count)
system.cpu.branchPred.indirectLookups            1640                       # Number of indirect predictor lookups. (Count)
system.cpu.branchPred.indirectHits                475                       # Number of indirect target hits. (Count)
system.cpu.branchPred.indirectMisses             1165                       # Number of indirect misses. (Count)
system.cpu.branchPred.indirectMispredicted          261                       # Number of mispredicted indirect branches. (Count)
system.cpu.commit.commitSquashedInsts         1465095                       # The number of squashed insts skipped by commit (Count)
system.cpu.commit.commitNonSpecStalls              63                       # The number of times commit has been forced to stall to communicate backwards (Count)
system.cpu.commit.branchMispredicts             10276                       # The number of times a branch was mispredicted (Count)
system.cpu.commit.numCommittedDist::samples    190068437                       # Number of insts commited each cycle (Count)
system.cpu.commit.numCommittedDist::mean     0.105080                       # Number of insts commited each cycle (Count)
system.cpu.commit.numCommittedDist::stdev     0.432968                       # Number of insts commited each cycle (Count)
system.cpu.commit.numCommittedDist::underflows            0      0.00%      0.00% # Number of insts commited each cycle (Count)
system.cpu.commit.numCommittedDist::0       175029420     92.09%     92.09% # Number of insts commited each cycle (Count)
system.cpu.commit.numCommittedDist::1        12337570      6.49%     98.58% # Number of insts commited each cycle (Count)
system.cpu.commit.numCommittedDist::2         1109668      0.58%     99.16% # Number of insts commited each cycle (Count)
system.cpu.commit.numCommittedDist::3         1403311      0.74%     99.90% # Number of insts commited each cycle (Count)
system.cpu.commit.numCommittedDist::4           50695      0.03%     99.93% # Number of insts commited each cycle (Count)
system.cpu.commit.numCommittedDist::5           29638      0.02%     99.94% # Number of insts commited each cycle (Count)
system.cpu.commit.numCommittedDist::6            4204      0.00%     99.95% # Number of insts commited each cycle (Count)
system.cpu.commit.numCommittedDist::7            2130      0.00%     99.95% # Number of insts commited each cycle (Count)
system.cpu.commit.numCommittedDist::8          101801      0.05%    100.00% # Number of insts commited each cycle (Count)
system.cpu.commit.numCommittedDist::overflows            0      0.00%    100.00% # Number of insts commited each cycle (Count)
system.cpu.commit.numCommittedDist::min_value            0                       # Number of insts commited each cycle (Count)
system.cpu.commit.numCommittedDist::max_value            8                       # Number of insts commited each cycle (Count)
system.cpu.commit.numCommittedDist::total    190068437                       # Number of insts commited each cycle (Count)
system.cpu.commit.instsCommitted             10000000                       # Number of instructions committed (Count)
system.cpu.commit.opsCommitted               19972351                       # Number of ops (including micro ops) committed (Count)
system.cpu.commit.memRefs                    11278664                       # Number of memory references committed (Count)
system.cpu.commit.loads                         51398                       # Number of loads committed (Count)
system.cpu.commit.amos                              0                       # Number of atomic instructions committed (Count)
system.cpu.commit.membars                           0                       # Number of memory barriers committed (Count)
system.cpu.commit.branches                    1444581                       # Number of branches committed (Count)
system.cpu.commit.vectorInstructions                0                       # Number of committed Vector instructions. (Count)
system.cpu.commit.floating                   11208860                       # Number of committed floating point instructions. (Count)
system.cpu.commit.integer                    19967938                       # Number of committed integer instructions. (Count)
system.cpu.commit.functionCalls                  1457                       # Number of function calls committed. (Count)
system.cpu.commit.committedInstType_0::No_OpClass          776      0.00%      0.00% # Class of committed instruction (Count)
system.cpu.commit.committedInstType_0::IntAlu      8690175     43.51%     43.51% # Class of committed instruction (Count)
system.cpu.commit.committedInstType_0::IntMult           67      0.00%     43.52% # Class of committed instruction (Count)
system.cpu.commit.committedInstType_0::IntDiv         1740      0.01%     43.52% # Class of committed instruction (Count)
system.cpu.commit.committedInstType_0::FloatAdd           89      0.00%     43.52% # Class of committed instruction (Count)
system.cpu.commit.committedInstType_0::FloatCmp            0      0.00%     43.52% # Class of committed instruction (Count)
system.cpu.commit.committedInstType_0::FloatCvt          112      0.00%     43.52% # Class of committed instruction (Count)
system.cpu.commit.committedInstType_0::FloatMult            0      0.00%     43.52% # Class of committed instruction (Count)
system.cpu.commit.committedInstType_0::FloatMultAcc            0      0.00%     43.52% # Class of committed instruction (Count)
system.cpu.commit.committedInstType_0::FloatDiv            0      0.00%     43.52% # Class of committed instruction (Count)
system.cpu.commit.committedInstType_0::FloatMisc            0      0.00%     43.52% # Class of committed instruction (Count)
system.cpu.commit.committedInstType_0::FloatSqrt            0      0.00%     43.52% # Class of committed instruction (Count)
system.cpu.commit.committedInstType_0::SimdAdd           12      0.00%     43.53% # Class of committed instruction (Count)
system.cpu.commit.committedInstType_0::SimdAddAcc            0      0.00%     43.53% # Class of committed instruction (Count)
system.cpu.commit.committedInstType_0::SimdAlu          109      0.00%     43.53% # Class of committed instruction (Count)
system.cpu.commit.committedInstType_0::SimdCmp            0      0.00%     43.53% # Class of committed instruction (Count)
system.cpu.commit.committedInstType_0::SimdCvt          196      0.00%     43.53% # Class of committed instruction (Count)
system.cpu.commit.committedInstType_0::SimdMisc          401      0.00%     43.53% # Class of committed instruction (Count)
system.cpu.commit.committedInstType_0::SimdMult            0      0.00%     43.53% # Class of committed instruction (Count)
system.cpu.commit.committedInstType_0::SimdMultAcc            0      0.00%     43.53% # Class of committed instruction (Count)
system.cpu.commit.committedInstType_0::SimdShift           10      0.00%     43.53% # Class of committed instruction (Count)
system.cpu.commit.committedInstType_0::SimdShiftAcc            0      0.00%     43.53% # Class of committed instruction (Count)
system.cpu.commit.committedInstType_0::SimdDiv            0      0.00%     43.53% # Class of committed instruction (Count)
system.cpu.commit.committedInstType_0::SimdSqrt            0      0.00%     43.53% # Class of committed instruction (Count)
system.cpu.commit.committedInstType_0::SimdFloatAdd            0      0.00%     43.53% # Class of committed instruction (Count)
system.cpu.commit.committedInstType_0::SimdFloatAlu            0      0.00%     43.53% # Class of committed instruction (Count)
system.cpu.commit.committedInstType_0::SimdFloatCmp            0      0.00%     43.53% # Class of committed instruction (Count)
system.cpu.commit.committedInstType_0::SimdFloatCvt            0      0.00%     43.53% # Class of committed instruction (Count)
system.cpu.commit.committedInstType_0::SimdFloatDiv            0      0.00%     43.53% # Class of committed instruction (Count)
system.cpu.commit.committedInstType_0::SimdFloatMisc            0      0.00%     43.53% # Class of committed instruction (Count)
system.cpu.commit.committedInstType_0::SimdFloatMult            0      0.00%     43.53% # Class of committed instruction (Count)
system.cpu.commit.committedInstType_0::SimdFloatMultAcc            0      0.00%     43.53% # Class of committed instruction (Count)
system.cpu.commit.committedInstType_0::SimdFloatSqrt            0      0.00%     43.53% # Class of committed instruction (Count)
system.cpu.commit.committedInstType_0::SimdReduceAdd            0      0.00%     43.53% # Class of committed instruction (Count)
system.cpu.commit.committedInstType_0::SimdReduceAlu            0      0.00%     43.53% # Class of committed instruction (Count)
system.cpu.commit.committedInstType_0::SimdReduceCmp            0      0.00%     43.53% # Class of committed instruction (Count)
system.cpu.commit.committedInstType_0::SimdFloatReduceAdd            0      0.00%     43.53% # Class of committed instruction (Count)
system.cpu.commit.committedInstType_0::SimdFloatReduceCmp            0      0.00%     43.53% # Class of committed instruction (Count)
system.cpu.commit.committedInstType_0::SimdAes            0      0.00%     43.53% # Class of committed instruction (Count)
system.cpu.commit.committedInstType_0::SimdAesMix            0      0.00%     43.53% # Class of committed instruction (Count)
system.cpu.commit.committedInstType_0::SimdSha1Hash            0      0.00%     43.53% # Class of committed instruction (Count)
system.cpu.commit.committedInstType_0::SimdSha1Hash2            0      0.00%     43.53% # Class of committed instruction (Count)
system.cpu.commit.committedInstType_0::SimdSha256Hash            0      0.00%     43.53% # Class of committed instruction (Count)
system.cpu.commit.committedInstType_0::SimdSha256Hash2            0      0.00%     43.53% # Class of committed instruction (Count)
system.cpu.commit.committedInstType_0::SimdShaSigma2            0      0.00%     43.53% # Class of committed instruction (Count)
system.cpu.commit.committedInstType_0::SimdShaSigma3            0      0.00%     43.53% # Class of committed instruction (Count)
system.cpu.commit.committedInstType_0::SimdPredAlu            0      0.00%     43.53% # Class of committed instruction (Count)
system.cpu.commit.committedInstType_0::MemRead        51053      0.26%     43.78% # Class of committed instruction (Count)
system.cpu.commit.committedInstType_0::MemWrite        19787      0.10%     43.88% # Class of committed instruction (Count)
system.cpu.commit.committedInstType_0::FloatMemRead          345      0.00%     43.89% # Class of committed instruction (Count)
system.cpu.commit.committedInstType_0::FloatMemWrite     11207479     56.11%    100.00% # Class of committed instruction (Count)
system.cpu.commit.committedInstType_0::IprAccess            0      0.00%    100.00% # Class of committed instruction (Count)
system.cpu.commit.committedInstType_0::InstPrefetch            0      0.00%    100.00% # Class of committed instruction (Count)
system.cpu.commit.committedInstType_0::total     19972351                       # Class of committed instruction (Count)
system.cpu.commit.commitEligibleSamples        101801                       # number cycles where commit BW limit reached (Cycle)
system.cpu.dcache.demandHits::cpu.data        9896245                       # number of demand (read+write) hits (Count)
system.cpu.dcache.demandHits::total           9896245                       # number of demand (read+write) hits (Count)
system.cpu.dcache.overallHits::cpu.data       9896245                       # number of overall hits (Count)
system.cpu.dcache.overallHits::total          9896245                       # number of overall hits (Count)
system.cpu.dcache.demandMisses::cpu.data      1413017                       # number of demand (read+write) misses (Count)
system.cpu.dcache.demandMisses::total         1413017                       # number of demand (read+write) misses (Count)
system.cpu.dcache.overallMisses::cpu.data      1413017                       # number of overall misses (Count)
system.cpu.dcache.overallMisses::total        1413017                       # number of overall misses (Count)
system.cpu.dcache.demandMissLatency::cpu.data  85413998990                       # number of demand (read+write) miss ticks (Tick)
system.cpu.dcache.demandMissLatency::total  85413998990                       # number of demand (read+write) miss ticks (Tick)
system.cpu.dcache.overallMissLatency::cpu.data  85413998990                       # number of overall miss ticks (Tick)
system.cpu.dcache.overallMissLatency::total  85413998990                       # number of overall miss ticks (Tick)
system.cpu.dcache.demandAccesses::cpu.data     11309262                       # number of demand (read+write) accesses (Count)
system.cpu.dcache.demandAccesses::total      11309262                       # number of demand (read+write) accesses (Count)
system.cpu.dcache.overallAccesses::cpu.data     11309262                       # number of overall (read+write) accesses (Count)
system.cpu.dcache.overallAccesses::total     11309262                       # number of overall (read+write) accesses (Count)
system.cpu.dcache.demandMissRate::cpu.data     0.124943                       # miss rate for demand accesses (Ratio)
system.cpu.dcache.demandMissRate::total      0.124943                       # miss rate for demand accesses (Ratio)
system.cpu.dcache.overallMissRate::cpu.data     0.124943                       # miss rate for overall accesses (Ratio)
system.cpu.dcache.overallMissRate::total     0.124943                       # miss rate for overall accesses (Ratio)
system.cpu.dcache.demandAvgMissLatency::cpu.data 60447.962756                       # average overall miss latency in ticks ((Tick/Count))
system.cpu.dcache.demandAvgMissLatency::total 60447.962756                       # average overall miss latency in ticks ((Tick/Count))
system.cpu.dcache.overallAvgMissLatency::cpu.data 60447.962756                       # average overall miss latency ((Tick/Count))
system.cpu.dcache.overallAvgMissLatency::total 60447.962756                       # average overall miss latency ((Tick/Count))
system.cpu.dcache.blockedCycles::no_mshrs        12809                       # number of cycles access was blocked (Cycle)
system.cpu.dcache.blockedCycles::no_targets            0                       # number of cycles access was blocked (Cycle)
system.cpu.dcache.blockedCauses::no_mshrs          292                       # number of times access was blocked (Count)
system.cpu.dcache.blockedCauses::no_targets            0                       # number of times access was blocked (Count)
system.cpu.dcache.avgBlocked::no_mshrs      43.866438                       # average number of cycles each access was blocked ((Cycle/Count))
system.cpu.dcache.avgBlocked::no_targets          nan                       # average number of cycles each access was blocked ((Cycle/Count))
system.cpu.dcache.writebacks::writebacks      1400519                       # number of writebacks (Count)
system.cpu.dcache.writebacks::total           1400519                       # number of writebacks (Count)
system.cpu.dcache.demandMshrHits::cpu.data         9127                       # number of demand (read+write) MSHR hits (Count)
system.cpu.dcache.demandMshrHits::total          9127                       # number of demand (read+write) MSHR hits (Count)
system.cpu.dcache.overallMshrHits::cpu.data         9127                       # number of overall MSHR hits (Count)
system.cpu.dcache.overallMshrHits::total         9127                       # number of overall MSHR hits (Count)
system.cpu.dcache.demandMshrMisses::cpu.data      1403890                       # number of demand (read+write) MSHR misses (Count)
system.cpu.dcache.demandMshrMisses::total      1403890                       # number of demand (read+write) MSHR misses (Count)
system.cpu.dcache.overallMshrMisses::cpu.data      1403890                       # number of overall MSHR misses (Count)
system.cpu.dcache.overallMshrMisses::total      1403890                       # number of overall MSHR misses (Count)
system.cpu.dcache.demandMshrMissLatency::cpu.data  83570973491                       # number of demand (read+write) MSHR miss ticks (Tick)
system.cpu.dcache.demandMshrMissLatency::total  83570973491                       # number of demand (read+write) MSHR miss ticks (Tick)
system.cpu.dcache.overallMshrMissLatency::cpu.data  83570973491                       # number of overall MSHR miss ticks (Tick)
system.cpu.dcache.overallMshrMissLatency::total  83570973491                       # number of overall MSHR miss ticks (Tick)
system.cpu.dcache.demandMshrMissRate::cpu.data     0.124136                       # mshr miss ratio for demand accesses (Ratio)
system.cpu.dcache.demandMshrMissRate::total     0.124136                       # mshr miss ratio for demand accesses (Ratio)
system.cpu.dcache.overallMshrMissRate::cpu.data     0.124136                       # mshr miss ratio for overall accesses (Ratio)
system.cpu.dcache.overallMshrMissRate::total     0.124136                       # mshr miss ratio for overall accesses (Ratio)
system.cpu.dcache.demandAvgMshrMissLatency::cpu.data 59528.149279                       # average overall mshr miss latency ((Tick/Count))
system.cpu.dcache.demandAvgMshrMissLatency::total 59528.149279                       # average overall mshr miss latency ((Tick/Count))
system.cpu.dcache.overallAvgMshrMissLatency::cpu.data 59528.149279                       # average overall mshr miss latency ((Tick/Count))
system.cpu.dcache.overallAvgMshrMissLatency::total 59528.149279                       # average overall mshr miss latency ((Tick/Count))
system.cpu.dcache.replacements                1402865                       # number of replacements (Count)
system.cpu.dcache.ReadReq.hits::cpu.data        70446                       # number of ReadReq hits (Count)
system.cpu.dcache.ReadReq.hits::total           70446                       # number of ReadReq hits (Count)
system.cpu.dcache.ReadReq.misses::cpu.data        11571                       # number of ReadReq misses (Count)
system.cpu.dcache.ReadReq.misses::total         11571                       # number of ReadReq misses (Count)
system.cpu.dcache.ReadReq.missLatency::cpu.data    591377500                       # number of ReadReq miss ticks (Tick)
system.cpu.dcache.ReadReq.missLatency::total    591377500                       # number of ReadReq miss ticks (Tick)
system.cpu.dcache.ReadReq.accesses::cpu.data        82017                       # number of ReadReq accesses(hits+misses) (Count)
system.cpu.dcache.ReadReq.accesses::total        82017                       # number of ReadReq accesses(hits+misses) (Count)
system.cpu.dcache.ReadReq.missRate::cpu.data     0.141081                       # miss rate for ReadReq accesses (Ratio)
system.cpu.dcache.ReadReq.missRate::total     0.141081                       # miss rate for ReadReq accesses (Ratio)
system.cpu.dcache.ReadReq.avgMissLatency::cpu.data 51108.590442                       # average ReadReq miss latency ((Tick/Count))
system.cpu.dcache.ReadReq.avgMissLatency::total 51108.590442                       # average ReadReq miss latency ((Tick/Count))
system.cpu.dcache.ReadReq.mshrHits::cpu.data         9118                       # number of ReadReq MSHR hits (Count)
system.cpu.dcache.ReadReq.mshrHits::total         9118                       # number of ReadReq MSHR hits (Count)
system.cpu.dcache.ReadReq.mshrMisses::cpu.data         2453                       # number of ReadReq MSHR misses (Count)
system.cpu.dcache.ReadReq.mshrMisses::total         2453                       # number of ReadReq MSHR misses (Count)
system.cpu.dcache.ReadReq.mshrMissLatency::cpu.data    150089500                       # number of ReadReq MSHR miss ticks (Tick)
system.cpu.dcache.ReadReq.mshrMissLatency::total    150089500                       # number of ReadReq MSHR miss ticks (Tick)
system.cpu.dcache.ReadReq.mshrMissRate::cpu.data     0.029908                       # mshr miss rate for ReadReq accesses (Ratio)
system.cpu.dcache.ReadReq.mshrMissRate::total     0.029908                       # mshr miss rate for ReadReq accesses (Ratio)
system.cpu.dcache.ReadReq.avgMshrMissLatency::cpu.data 61186.098655                       # average ReadReq mshr miss latency ((Tick/Count))
system.cpu.dcache.ReadReq.avgMshrMissLatency::total 61186.098655                       # average ReadReq mshr miss latency ((Tick/Count))
system.cpu.dcache.WriteReq.hits::cpu.data      9825799                       # number of WriteReq hits (Count)
system.cpu.dcache.WriteReq.hits::total        9825799                       # number of WriteReq hits (Count)
system.cpu.dcache.WriteReq.misses::cpu.data      1401446                       # number of WriteReq misses (Count)
system.cpu.dcache.WriteReq.misses::total      1401446                       # number of WriteReq misses (Count)
system.cpu.dcache.WriteReq.missLatency::cpu.data  84822621490                       # number of WriteReq miss ticks (Tick)
system.cpu.dcache.WriteReq.missLatency::total  84822621490                       # number of WriteReq miss ticks (Tick)
system.cpu.dcache.WriteReq.accesses::cpu.data     11227245                       # number of WriteReq accesses(hits+misses) (Count)
system.cpu.dcache.WriteReq.accesses::total     11227245                       # number of WriteReq accesses(hits+misses) (Count)
system.cpu.dcache.WriteReq.missRate::cpu.data     0.124825                       # miss rate for WriteReq accesses (Ratio)
system.cpu.dcache.WriteReq.missRate::total     0.124825                       # miss rate for WriteReq accesses (Ratio)
system.cpu.dcache.WriteReq.avgMissLatency::cpu.data 60525.073025                       # average WriteReq miss latency ((Tick/Count))
system.cpu.dcache.WriteReq.avgMissLatency::total 60525.073025                       # average WriteReq miss latency ((Tick/Count))
system.cpu.dcache.WriteReq.mshrHits::cpu.data            9                       # number of WriteReq MSHR hits (Count)
system.cpu.dcache.WriteReq.mshrHits::total            9                       # number of WriteReq MSHR hits (Count)
system.cpu.dcache.WriteReq.mshrMisses::cpu.data      1401437                       # number of WriteReq MSHR misses (Count)
system.cpu.dcache.WriteReq.mshrMisses::total      1401437                       # number of WriteReq MSHR misses (Count)
system.cpu.dcache.WriteReq.mshrMissLatency::cpu.data  83420883991                       # number of WriteReq MSHR miss ticks (Tick)
system.cpu.dcache.WriteReq.mshrMissLatency::total  83420883991                       # number of WriteReq MSHR miss ticks (Tick)
system.cpu.dcache.WriteReq.mshrMissRate::cpu.data     0.124825                       # mshr miss rate for WriteReq accesses (Ratio)
system.cpu.dcache.WriteReq.mshrMissRate::total     0.124825                       # mshr miss rate for WriteReq accesses (Ratio)
system.cpu.dcache.WriteReq.avgMshrMissLatency::cpu.data 59525.247293                       # average WriteReq mshr miss latency ((Tick/Count))
system.cpu.dcache.WriteReq.avgMshrMissLatency::total 59525.247293                       # average WriteReq mshr miss latency ((Tick/Count))
system.cpu.dcache.power_state.pwrStateResidencyTicks::UNDEFINED  95176649500                       # Cumulative time (in ticks) in various power states (Tick)
system.cpu.dcache.tags.tagsInUse          1023.417216                       # Average ticks per tags in use ((Tick/Count))
system.cpu.dcache.tags.totalRefs             11300134                       # Total number of references to valid blocks. (Count)
system.cpu.dcache.tags.sampledRefs            1403889                       # Sample count of references to valid blocks. (Count)
system.cpu.dcache.tags.avgRefs               8.049165                       # Average number of references to valid blocks. ((Count/Count))
system.cpu.dcache.tags.warmupTick              148000                       # The tick when the warmup percentage was hit. (Tick)
system.cpu.dcache.tags.occupancies::cpu.data  1023.417216                       # Average occupied blocks per tick, per requestor ((Count/Tick))
system.cpu.dcache.tags.avgOccs::cpu.data     0.999431                       # Average percentage of cache occupancy ((Ratio/Tick))
system.cpu.dcache.tags.avgOccs::total        0.999431                       # Average percentage of cache occupancy ((Ratio/Tick))
system.cpu.dcache.tags.occupanciesTaskId::1024         1024                       # Occupied blocks per task id (Count)
system.cpu.dcache.tags.ageTaskId_1024::0          147                       # Occupied blocks per task id, per block age (Count)
system.cpu.dcache.tags.ageTaskId_1024::1          877                       # Occupied blocks per task id, per block age (Count)
system.cpu.dcache.tags.ratioOccsTaskId::1024            1                       # Ratio of occupied blocks and all blocks, per task id (Ratio)
system.cpu.dcache.tags.tagAccesses           24022413                       # Number of tag accesses (Count)
system.cpu.dcache.tags.dataAccesses          24022413                       # Number of data accesses (Count)
system.cpu.dcache.tags.power_state.pwrStateResidencyTicks::UNDEFINED  95176649500                       # Cumulative time (in ticks) in various power states (Tick)
system.cpu.decode.idleCycles                   943619                       # Number of cycles decode is idle (Cycle)
system.cpu.decode.blockedCycles             186546853                       # Number of cycles decode is blocked (Cycle)
system.cpu.decode.runCycles                    268004                       # Number of cycles decode is running (Cycle)
system.cpu.decode.unblockCycles               2490331                       # Number of cycles decode is unblocking (Cycle)
system.cpu.decode.squashCycles                  32419                       # Number of cycles decode is squashing (Cycle)
system.cpu.decode.branchResolved              1539954                       # Number of times decode resolved a branch (Count)
system.cpu.decode.branchMispred                   647                       # Number of times decode detected a branch misprediction (Count)
system.cpu.decode.decodedInsts               21835131                       # Number of instructions handled by decode (Count)
system.cpu.decode.squashedInsts                  3100                       # Number of squashed instructions handled by decode (Count)
system.cpu.dtb_walker_cache.blockedCycles::no_mshrs            0                       # number of cycles access was blocked (Cycle)
system.cpu.dtb_walker_cache.blockedCycles::no_targets            0                       # number of cycles access was blocked (Cycle)
system.cpu.dtb_walker_cache.blockedCauses::no_mshrs            0                       # number of times access was blocked (Count)
system.cpu.dtb_walker_cache.blockedCauses::no_targets            0                       # number of times access was blocked (Count)
system.cpu.dtb_walker_cache.avgBlocked::no_mshrs          nan                       # average number of cycles each access was blocked ((Cycle/Count))
system.cpu.dtb_walker_cache.avgBlocked::no_targets          nan                       # average number of cycles each access was blocked ((Cycle/Count))
system.cpu.dtb_walker_cache.replacements            0                       # number of replacements (Count)
system.cpu.dtb_walker_cache.power_state.pwrStateResidencyTicks::UNDEFINED  95176649500                       # Cumulative time (in ticks) in various power states (Tick)
system.cpu.dtb_walker_cache.tags.tagsInUse            0                       # Average ticks per tags in use ((Tick/Count))
system.cpu.dtb_walker_cache.tags.totalRefs            0                       # Total number of references to valid blocks. (Count)
system.cpu.dtb_walker_cache.tags.sampledRefs            0                       # Sample count of references to valid blocks. (Count)
system.cpu.dtb_walker_cache.tags.avgRefs          nan                       # Average number of references to valid blocks. ((Count/Count))
system.cpu.dtb_walker_cache.tags.warmupTick            0                       # The tick when the warmup percentage was hit. (Tick)
system.cpu.dtb_walker_cache.tags.tagAccesses            0                       # Number of tag accesses (Count)
system.cpu.dtb_walker_cache.tags.dataAccesses            0                       # Number of data accesses (Count)
system.cpu.dtb_walker_cache.tags.power_state.pwrStateResidencyTicks::UNDEFINED  95176649500                       # Cumulative time (in ticks) in various power states (Tick)
system.cpu.fetch.icacheStallCycles             104815                       # Number of cycles fetch is stalled on an Icache miss (Cycle)
system.cpu.fetch.insts                       11553737                       # Number of instructions fetch has processed (Count)
system.cpu.fetch.branches                     1669997                       # Number of branches that fetch encountered (Count)
system.cpu.fetch.predictedBranches            1615091                       # Number of branches that fetch has predicted taken (Count)
system.cpu.fetch.cycles                     190140593                       # Number of cycles fetch has run and was not squashing or blocked (Cycle)
system.cpu.fetch.squashCycles                   66102                       # Number of cycles fetch has spent squashing (Cycle)
system.cpu.fetch.miscStallCycles                  325                       # Number of cycles fetch has spent waiting on interrupts, or bad addresses, or out of MSHRs (Cycle)
system.cpu.fetch.pendingTrapStallCycles          2427                       # Number of stall cycles due to pending traps (Cycle)
system.cpu.fetch.icacheWaitRetryStallCycles           15                       # Number of stall cycles due to full MSHR (Cycle)
system.cpu.fetch.cacheLines                     64307                       # Number of cache lines fetched (Count)
system.cpu.fetch.icacheSquashes                  3423                       # Number of outstanding Icache misses that were squashed (Count)
system.cpu.fetch.nisnDist::samples          190281226                       # Number of instructions fetched each cycle (Total) (Count)
system.cpu.fetch.nisnDist::mean              0.120754                       # Number of instructions fetched each cycle (Total) (Count)
system.cpu.fetch.nisnDist::stdev             0.887523                       # Number of instructions fetched each cycle (Total) (Count)
system.cpu.fetch.nisnDist::underflows               0      0.00%      0.00% # Number of instructions fetched each cycle (Total) (Count)
system.cpu.fetch.nisnDist::0                186266114     97.89%     97.89% # Number of instructions fetched each cycle (Total) (Count)
system.cpu.fetch.nisnDist::1                    14302      0.01%     97.90% # Number of instructions fetched each cycle (Total) (Count)
system.cpu.fetch.nisnDist::2                   713561      0.38%     98.27% # Number of instructions fetched each cycle (Total) (Count)
system.cpu.fetch.nisnDist::3                    10623      0.01%     98.28% # Number of instructions fetched each cycle (Total) (Count)
system.cpu.fetch.nisnDist::4                   736188      0.39%     98.66% # Number of instructions fetched each cycle (Total) (Count)
system.cpu.fetch.nisnDist::5                    10597      0.01%     98.67% # Number of instructions fetched each cycle (Total) (Count)
system.cpu.fetch.nisnDist::6                   863741      0.45%     99.12% # Number of instructions fetched each cycle (Total) (Count)
system.cpu.fetch.nisnDist::7                     4966      0.00%     99.13% # Number of instructions fetched each cycle (Total) (Count)
system.cpu.fetch.nisnDist::8                  1661134      0.87%    100.00% # Number of instructions fetched each cycle (Total) (Count)
system.cpu.fetch.nisnDist::overflows                0      0.00%    100.00% # Number of instructions fetched each cycle (Total) (Count)
system.cpu.fetch.nisnDist::min_value                0                       # Number of instructions fetched each cycle (Total) (Count)
system.cpu.fetch.nisnDist::max_value                8                       # Number of instructions fetched each cycle (Total) (Count)
system.cpu.fetch.nisnDist::total            190281226                       # Number of instructions fetched each cycle (Total) (Count)
system.cpu.fetch.branchRate                  0.008773                       # Number of branch fetches per cycle (Ratio)
system.cpu.fetch.rate                        0.060696                       # Number of inst fetches per cycle ((Count/Cycle))
system.cpu.icache.demandHits::cpu.inst          62144                       # number of demand (read+write) hits (Count)
system.cpu.icache.demandHits::total             62144                       # number of demand (read+write) hits (Count)
system.cpu.icache.overallHits::cpu.inst         62144                       # number of overall hits (Count)
system.cpu.icache.overallHits::total            62144                       # number of overall hits (Count)
system.cpu.icache.demandMisses::cpu.inst         2163                       # number of demand (read+write) misses (Count)
system.cpu.icache.demandMisses::total            2163                       # number of demand (read+write) misses (Count)
system.cpu.icache.overallMisses::cpu.inst         2163                       # number of overall misses (Count)
system.cpu.icache.overallMisses::total           2163                       # number of overall misses (Count)
system.cpu.icache.demandMissLatency::cpu.inst    115893500                       # number of demand (read+write) miss ticks (Tick)
system.cpu.icache.demandMissLatency::total    115893500                       # number of demand (read+write) miss ticks (Tick)
system.cpu.icache.overallMissLatency::cpu.inst    115893500                       # number of overall miss ticks (Tick)
system.cpu.icache.overallMissLatency::total    115893500                       # number of overall miss ticks (Tick)
system.cpu.icache.demandAccesses::cpu.inst        64307                       # number of demand (read+write) accesses (Count)
system.cpu.icache.demandAccesses::total         64307                       # number of demand (read+write) accesses (Count)
system.cpu.icache.overallAccesses::cpu.inst        64307                       # number of overall (read+write) accesses (Count)
system.cpu.icache.overallAccesses::total        64307                       # number of overall (read+write) accesses (Count)
system.cpu.icache.demandMissRate::cpu.inst     0.033636                       # miss rate for demand accesses (Ratio)
system.cpu.icache.demandMissRate::total      0.033636                       # miss rate for demand accesses (Ratio)
system.cpu.icache.overallMissRate::cpu.inst     0.033636                       # miss rate for overall accesses (Ratio)
system.cpu.icache.overallMissRate::total     0.033636                       # miss rate for overall accesses (Ratio)
system.cpu.icache.demandAvgMissLatency::cpu.inst 53579.981507                       # average overall miss latency in ticks ((Tick/Count))
system.cpu.icache.demandAvgMissLatency::total 53579.981507                       # average overall miss latency in ticks ((Tick/Count))
system.cpu.icache.overallAvgMissLatency::cpu.inst 53579.981507                       # average overall miss latency ((Tick/Count))
system.cpu.icache.overallAvgMissLatency::total 53579.981507                       # average overall miss latency ((Tick/Count))
system.cpu.icache.blockedCycles::no_mshrs          274                       # number of cycles access was blocked (Cycle)
system.cpu.icache.blockedCycles::no_targets            0                       # number of cycles access was blocked (Cycle)
system.cpu.icache.blockedCauses::no_mshrs            2                       # number of times access was blocked (Count)
system.cpu.icache.blockedCauses::no_targets            0                       # number of times access was blocked (Count)
system.cpu.icache.avgBlocked::no_mshrs            137                       # average number of cycles each access was blocked ((Cycle/Count))
system.cpu.icache.avgBlocked::no_targets          nan                       # average number of cycles each access was blocked ((Cycle/Count))
system.cpu.icache.writebacks::writebacks          843                       # number of writebacks (Count)
system.cpu.icache.writebacks::total               843                       # number of writebacks (Count)
system.cpu.icache.demandMshrHits::cpu.inst          815                       # number of demand (read+write) MSHR hits (Count)
system.cpu.icache.demandMshrHits::total           815                       # number of demand (read+write) MSHR hits (Count)
system.cpu.icache.overallMshrHits::cpu.inst          815                       # number of overall MSHR hits (Count)
system.cpu.icache.overallMshrHits::total          815                       # number of overall MSHR hits (Count)
system.cpu.icache.demandMshrMisses::cpu.inst         1348                       # number of demand (read+write) MSHR misses (Count)
system.cpu.icache.demandMshrMisses::total         1348                       # number of demand (read+write) MSHR misses (Count)
system.cpu.icache.overallMshrMisses::cpu.inst         1348                       # number of overall MSHR misses (Count)
system.cpu.icache.overallMshrMisses::total         1348                       # number of overall MSHR misses (Count)
system.cpu.icache.demandMshrMissLatency::cpu.inst     78751500                       # number of demand (read+write) MSHR miss ticks (Tick)
system.cpu.icache.demandMshrMissLatency::total     78751500                       # number of demand (read+write) MSHR miss ticks (Tick)
system.cpu.icache.overallMshrMissLatency::cpu.inst     78751500                       # number of overall MSHR miss ticks (Tick)
system.cpu.icache.overallMshrMissLatency::total     78751500                       # number of overall MSHR miss ticks (Tick)
system.cpu.icache.demandMshrMissRate::cpu.inst     0.020962                       # mshr miss ratio for demand accesses (Ratio)
system.cpu.icache.demandMshrMissRate::total     0.020962                       # mshr miss ratio for demand accesses (Ratio)
system.cpu.icache.overallMshrMissRate::cpu.inst     0.020962                       # mshr miss ratio for overall accesses (Ratio)
system.cpu.icache.overallMshrMissRate::total     0.020962                       # mshr miss ratio for overall accesses (Ratio)
system.cpu.icache.demandAvgMshrMissLatency::cpu.inst 58420.994065                       # average overall mshr miss latency ((Tick/Count))
system.cpu.icache.demandAvgMshrMissLatency::total 58420.994065                       # average overall mshr miss latency ((Tick/Count))
system.cpu.icache.overallAvgMshrMissLatency::cpu.inst 58420.994065                       # average overall mshr miss latency ((Tick/Count))
system.cpu.icache.overallAvgMshrMissLatency::total 58420.994065                       # average overall mshr miss latency ((Tick/Count))
system.cpu.icache.replacements                    843                       # number of replacements (Count)
system.cpu.icache.ReadReq.hits::cpu.inst        62144                       # number of ReadReq hits (Count)
system.cpu.icache.ReadReq.hits::total           62144                       # number of ReadReq hits (Count)
system.cpu.icache.ReadReq.misses::cpu.inst         2163                       # number of ReadReq misses (Count)
system.cpu.icache.ReadReq.misses::total          2163                       # number of ReadReq misses (Count)
system.cpu.icache.ReadReq.missLatency::cpu.inst    115893500                       # number of ReadReq miss ticks (Tick)
system.cpu.icache.ReadReq.missLatency::total    115893500                       # number of ReadReq miss ticks (Tick)
system.cpu.icache.ReadReq.accesses::cpu.inst        64307                       # number of ReadReq accesses(hits+misses) (Count)
system.cpu.icache.ReadReq.accesses::total        64307                       # number of ReadReq accesses(hits+misses) (Count)
system.cpu.icache.ReadReq.missRate::cpu.inst     0.033636                       # miss rate for ReadReq accesses (Ratio)
system.cpu.icache.ReadReq.missRate::total     0.033636                       # miss rate for ReadReq accesses (Ratio)
system.cpu.icache.ReadReq.avgMissLatency::cpu.inst 53579.981507                       # average ReadReq miss latency ((Tick/Count))
system.cpu.icache.ReadReq.avgMissLatency::total 53579.981507                       # average ReadReq miss latency ((Tick/Count))
system.cpu.icache.ReadReq.mshrHits::cpu.inst          815                       # number of ReadReq MSHR hits (Count)
system.cpu.icache.ReadReq.mshrHits::total          815                       # number of ReadReq MSHR hits (Count)
system.cpu.icache.ReadReq.mshrMisses::cpu.inst         1348                       # number of ReadReq MSHR misses (Count)
system.cpu.icache.ReadReq.mshrMisses::total         1348                       # number of ReadReq MSHR misses (Count)
system.cpu.icache.ReadReq.mshrMissLatency::cpu.inst     78751500                       # number of ReadReq MSHR miss ticks (Tick)
system.cpu.icache.ReadReq.mshrMissLatency::total     78751500                       # number of ReadReq MSHR miss ticks (Tick)
system.cpu.icache.ReadReq.mshrMissRate::cpu.inst     0.020962                       # mshr miss rate for ReadReq accesses (Ratio)
system.cpu.icache.ReadReq.mshrMissRate::total     0.020962                       # mshr miss rate for ReadReq accesses (Ratio)
system.cpu.icache.ReadReq.avgMshrMissLatency::cpu.inst 58420.994065                       # average ReadReq mshr miss latency ((Tick/Count))
system.cpu.icache.ReadReq.avgMshrMissLatency::total 58420.994065                       # average ReadReq mshr miss latency ((Tick/Count))
system.cpu.icache.power_state.pwrStateResidencyTicks::UNDEFINED  95176649500                       # Cumulative time (in ticks) in various power states (Tick)
system.cpu.icache.tags.tagsInUse           504.818180                       # Average ticks per tags in use ((Tick/Count))
system.cpu.icache.tags.totalRefs                63492                       # Total number of references to valid blocks. (Count)
system.cpu.icache.tags.sampledRefs               1348                       # Sample count of references to valid blocks. (Count)
system.cpu.icache.tags.avgRefs              47.100890                       # Average number of references to valid blocks. ((Count/Count))
system.cpu.icache.tags.warmupTick               77000                       # The tick when the warmup percentage was hit. (Tick)
system.cpu.icache.tags.occupancies::cpu.inst   504.818180                       # Average occupied blocks per tick, per requestor ((Count/Tick))
system.cpu.icache.tags.avgOccs::cpu.inst     0.985973                       # Average percentage of cache occupancy ((Ratio/Tick))
system.cpu.icache.tags.avgOccs::total        0.985973                       # Average percentage of cache occupancy ((Ratio/Tick))
system.cpu.icache.tags.occupanciesTaskId::1024          505                       # Occupied blocks per task id (Count)
system.cpu.icache.tags.ageTaskId_1024::4          505                       # Occupied blocks per task id, per block age (Count)
system.cpu.icache.tags.ratioOccsTaskId::1024     0.986328                       # Ratio of occupied blocks and all blocks, per task id (Ratio)
system.cpu.icache.tags.tagAccesses             129962                       # Number of tag accesses (Count)
system.cpu.icache.tags.dataAccesses            129962                       # Number of data accesses (Count)
system.cpu.icache.tags.power_state.pwrStateResidencyTicks::UNDEFINED  95176649500                       # Cumulative time (in ticks) in various power states (Tick)
system.cpu.iew.idleCycles                           0                       # Number of cycles IEW is idle (Cycle)
system.cpu.iew.squashCycles                     32419                       # Number of cycles IEW is squashing (Cycle)
system.cpu.iew.blockCycles                     230325                       # Number of cycles IEW is blocking (Cycle)
system.cpu.iew.unblockCycles                 82234877                       # Number of cycles IEW is unblocking (Cycle)
system.cpu.iew.dispatchedInsts               21593549                       # Number of instructions dispatched to IQ (Count)
system.cpu.iew.dispSquashedInsts                  604                       # Number of squashed instructions skipped by dispatch (Count)
system.cpu.iew.dispLoadInsts                   107163                       # Number of dispatched load instructions (Count)
system.cpu.iew.dispStoreInsts                11942605                       # Number of dispatched store instructions (Count)
system.cpu.iew.dispNonSpecInsts                   124                       # Number of dispatched non-speculative instructions (Count)
system.cpu.iew.iqFullEvents                       472                       # Number of times the IQ has become full, causing a stall (Count)
system.cpu.iew.lsqFullEvents                 82255891                       # Number of times the LSQ has become full, causing a stall (Count)
system.cpu.iew.memOrderViolationEvents            101                       # Number of memory order violations (Count)
system.cpu.iew.predictedTakenIncorrect           2561                       # Number of branches that were predicted taken incorrectly (Count)
system.cpu.iew.predictedNotTakenIncorrect         4431                       # Number of branches that were predicted not taken incorrectly (Count)
system.cpu.iew.branchMispredicts                 6992                       # Number of branch mispredicts detected at execute (Count)
system.cpu.iew.mispredictedLVP                   5944                       # mispredictedLVP (Count)
system.cpu.iew.LvpCorrect                       30374                       # LvpCorrect (Count)
system.cpu.iew.instsToCommit                 21425025                       # Cumulative count of insts sent to commit (Count)
system.cpu.iew.writebackCount                20763246                       # Cumulative count of insts written-back (Count)
system.cpu.iew.producerInst                   7648277                       # Number of instructions producing a value (Count)
system.cpu.iew.consumerInst                   9980901                       # Number of instructions consuming a value (Count)
system.cpu.iew.wbRate                        0.109077                       # Insts written-back per cycle ((Count/Cycle))
system.cpu.iew.wbFanout                      0.766291                       # Average fanout of values written-back ((Count/Count))
system.cpu.interrupts.clk_domain.clock           8000                       # Clock period in ticks (Tick)
system.cpu.itb_walker_cache.blockedCycles::no_mshrs            0                       # number of cycles access was blocked (Cycle)
system.cpu.itb_walker_cache.blockedCycles::no_targets            0                       # number of cycles access was blocked (Cycle)
system.cpu.itb_walker_cache.blockedCauses::no_mshrs            0                       # number of times access was blocked (Count)
system.cpu.itb_walker_cache.blockedCauses::no_targets            0                       # number of times access was blocked (Count)
system.cpu.itb_walker_cache.avgBlocked::no_mshrs          nan                       # average number of cycles each access was blocked ((Cycle/Count))
system.cpu.itb_walker_cache.avgBlocked::no_targets          nan                       # average number of cycles each access was blocked ((Cycle/Count))
system.cpu.itb_walker_cache.replacements            0                       # number of replacements (Count)
system.cpu.itb_walker_cache.power_state.pwrStateResidencyTicks::UNDEFINED  95176649500                       # Cumulative time (in ticks) in various power states (Tick)
system.cpu.itb_walker_cache.tags.tagsInUse            0                       # Average ticks per tags in use ((Tick/Count))
system.cpu.itb_walker_cache.tags.totalRefs            0                       # Total number of references to valid blocks. (Count)
system.cpu.itb_walker_cache.tags.sampledRefs            0                       # Sample count of references to valid blocks. (Count)
system.cpu.itb_walker_cache.tags.avgRefs          nan                       # Average number of references to valid blocks. ((Count/Count))
system.cpu.itb_walker_cache.tags.warmupTick            0                       # The tick when the warmup percentage was hit. (Tick)
system.cpu.itb_walker_cache.tags.tagAccesses            0                       # Number of tag accesses (Count)
system.cpu.itb_walker_cache.tags.dataAccesses            0                       # Number of data accesses (Count)
system.cpu.itb_walker_cache.tags.power_state.pwrStateResidencyTicks::UNDEFINED  95176649500                       # Cumulative time (in ticks) in various power states (Tick)
system.cpu.lsq0.forwLoads                        3897                       # Number of loads that had data forwarded from stores (Count)
system.cpu.lsq0.squashedLoads                   55765                       # Number of loads squashed (Count)
system.cpu.lsq0.ignoredResponses                   72                       # Number of memory responses ignored because the instruction is squashed (Count)
system.cpu.lsq0.memOrderViolation                 101                       # Number of memory ordering violations (Count)
system.cpu.lsq0.squashedStores                 715338                       # Number of stores squashed (Count)
system.cpu.lsq0.rescheduledLoads                   22                       # Number of loads that were rescheduled (Count)
system.cpu.lsq0.blockedByCache                    274                       # Number of times an access to memory failed due to the cache being blocked (Count)
system.cpu.lsq0.loadToUse::samples              51398                       # Distribution of cycle latency between the first time a load is issued and its completion (Unspecified)
system.cpu.lsq0.loadToUse::mean             15.733881                       # Distribution of cycle latency between the first time a load is issued and its completion (Unspecified)
system.cpu.lsq0.loadToUse::stdev            42.074123                       # Distribution of cycle latency between the first time a load is issued and its completion (Unspecified)
system.cpu.lsq0.loadToUse::0-9                  45564     88.65%     88.65% # Distribution of cycle latency between the first time a load is issued and its completion (Unspecified)
system.cpu.lsq0.loadToUse::10-19                  257      0.50%     89.15% # Distribution of cycle latency between the first time a load is issued and its completion (Unspecified)
system.cpu.lsq0.loadToUse::20-29                  181      0.35%     89.50% # Distribution of cycle latency between the first time a load is issued and its completion (Unspecified)
system.cpu.lsq0.loadToUse::30-39                  101      0.20%     89.70% # Distribution of cycle latency between the first time a load is issued and its completion (Unspecified)
system.cpu.lsq0.loadToUse::40-49                   98      0.19%     89.89% # Distribution of cycle latency between the first time a load is issued and its completion (Unspecified)
system.cpu.lsq0.loadToUse::50-59                   99      0.19%     90.08% # Distribution of cycle latency between the first time a load is issued and its completion (Unspecified)
system.cpu.lsq0.loadToUse::60-69                  145      0.28%     90.36% # Distribution of cycle latency between the first time a load is issued and its completion (Unspecified)
system.cpu.lsq0.loadToUse::70-79                  154      0.30%     90.66% # Distribution of cycle latency between the first time a load is issued and its completion (Unspecified)
system.cpu.lsq0.loadToUse::80-89                  382      0.74%     91.41% # Distribution of cycle latency between the first time a load is issued and its completion (Unspecified)
[...]
system.mem_ctrls.dram.perBankWrBursts::1        87610                       # Per bank write bursts (Count)
system.mem_ctrls.dram.perBankWrBursts::2        87631                       # Per bank write bursts (Count)
system.mem_ctrls.dram.perBankWrBursts::3        87613                       # Per bank write bursts (Count)
system.mem_ctrls.dram.perBankWrBursts::4        87606                       # Per bank write bursts (Count)
system.mem_ctrls.dram.perBankWrBursts::5        87618                       # Per bank write bursts (Count)
system.mem_ctrls.dram.perBankWrBursts::6        87630                       # Per bank write bursts (Count)
system.mem_ctrls.dram.perBankWrBursts::7        87529                       # Per bank write bursts (Count)
system.mem_ctrls.dram.perBankWrBursts::8        87598                       # Per bank write bursts (Count)
system.mem_ctrls.dram.perBankWrBursts::9        87517                       # Per bank write bursts (Count)
system.mem_ctrls.dram.perBankWrBursts::10        87480                       # Per bank write bursts (Count)
system.mem_ctrls.dram.perBankWrBursts::11        87537                       # Per bank write bursts (Count)
system.mem_ctrls.dram.perBankWrBursts::12        87532                       # Per bank write bursts (Count)
system.mem_ctrls.dram.perBankWrBursts::13        87511                       # Per bank write bursts (Count)
system.mem_ctrls.dram.perBankWrBursts::14        87595                       # Per bank write bursts (Count)
system.mem_ctrls.dram.perBankWrBursts::15        87626                       # Per bank write bursts (Count)
system.mem_ctrls.dram.totQLat             13369750250                       # Total ticks spent queuing (Tick)
system.mem_ctrls.dram.totBusLat            7025520000                       # Total ticks spent in databus transfers (Tick)
system.mem_ctrls.dram.totMemAccLat        39715450250                       # Total ticks spent from burst creation until serviced by the DRAM (Tick)
system.mem_ctrls.dram.avgQLat                 9515.13                       # Average queueing delay per DRAM burst ((Tick/Count))
system.mem_ctrls.dram.avgBusLat               5000.00                       # Average bus latency per DRAM burst ((Tick/Count))
system.mem_ctrls.dram.avgMemAccLat           28265.13                       # Average memory access latency per DRAM burst ((Tick/Count))
system.mem_ctrls.dram.readRowHits             1305457                       # Number of row buffer hits during reads (Count)
system.mem_ctrls.dram.writeRowHits            1303145                       # Number of row buffer hits during writes (Count)
system.mem_ctrls.dram.readRowHitRate            92.91                       # Row buffer hit rate for reads (Ratio)
system.mem_ctrls.dram.writeRowHitRate           93.00                       # Row buffer hit rate for writes (Ratio)
system.mem_ctrls.dram.bytesPerActivate::samples       197763                       # Bytes accessed per row activation (Byte)
system.mem_ctrls.dram.bytesPerActivate::mean   908.186870                       # Bytes accessed per row activation (Byte)
system.mem_ctrls.dram.bytesPerActivate::gmean   828.911309                       # Bytes accessed per row activation (Byte)
system.mem_ctrls.dram.bytesPerActivate::stdev   254.721300                       # Bytes accessed per row activation (Byte)
system.mem_ctrls.dram.bytesPerActivate::0-127         3601      1.82%      1.82% # Bytes accessed per row activation (Byte)
system.mem_ctrls.dram.bytesPerActivate::128-255         6218      3.14%      4.97% # Bytes accessed per row activation (Byte)
system.mem_ctrls.dram.bytesPerActivate::256-383         5573      2.82%      7.78% # Bytes accessed per row activation (Byte)
system.mem_ctrls.dram.bytesPerActivate::384-511         5765      2.92%     10.70% # Bytes accessed per row activation (Byte)
system.mem_ctrls.dram.bytesPerActivate::512-639         6263      3.17%     13.87% # Bytes accessed per row activation (Byte)
system.mem_ctrls.dram.bytesPerActivate::640-767         5635      2.85%     16.71% # Bytes accessed per row activation (Byte)
system.mem_ctrls.dram.bytesPerActivate::768-895         4859      2.46%     19.17% # Bytes accessed per row activation (Byte)
system.mem_ctrls.dram.bytesPerActivate::896-1023         4904      2.48%     21.65% # Bytes accessed per row activation (Byte)
system.mem_ctrls.dram.bytesPerActivate::1024-1151       154945     78.35%    100.00% # Bytes accessed per row activation (Byte)
system.mem_ctrls.dram.bytesPerActivate::total       197763                       # Bytes accessed per row activation (Byte)
system.mem_ctrls.dram.bytesRead              89926656                       # Total bytes read (Byte)
system.mem_ctrls.dram.bytesWritten           89680960                       # Total bytes written (Byte)
system.mem_ctrls.dram.avgRdBW              944.839480                       # Average DRAM read bandwidth in MiBytes/s ((Byte/Second))
system.mem_ctrls.dram.avgWrBW              942.258006                       # Average DRAM write bandwidth in MiBytes/s ((Byte/Second))
system.mem_ctrls.dram.peakBW                 12800.00                       # Theoretical peak bandwidth in MiByte/s ((Byte/Second))
system.mem_ctrls.dram.busUtil                   14.74                       # Data bus utilization in percentage (Ratio)
system.mem_ctrls.dram.busUtilRead                7.38                       # Data bus utilization in percentage for reads (Ratio)
system.mem_ctrls.dram.busUtilWrite               7.36                       # Data bus utilization in percentage for writes (Ratio)
system.mem_ctrls.dram.pageHitRate               92.95                       # Row buffer hit rate, read and write combined (Ratio)
system.mem_ctrls.dram.power_state.pwrStateResidencyTicks::UNDEFINED  95176649500                       # Cumulative time (in ticks) in various power states (Tick)
system.mem_ctrls.dram.rank0.actEnergy       706567260                       # Energy for activate commands per rank (pJ) (Joule)
system.mem_ctrls.dram.rank0.preEnergy       375541815                       # Energy for precharge commands per rank (pJ) (Joule)
system.mem_ctrls.dram.rank0.readEnergy     5017627860                       # Energy for read commands per rank (pJ) (Joule)
system.mem_ctrls.dram.rank0.writeEnergy    3658536180                       # Energy for write commands per rank (pJ) (Joule)
system.mem_ctrls.dram.rank0.refreshEnergy 7512744720.000001                       # Energy for refresh commands per rank (pJ) (Joule)
system.mem_ctrls.dram.rank0.actBackEnergy  33142747470                       # Energy for active background per rank (pJ) (Joule)
system.mem_ctrls.dram.rank0.preBackEnergy   8638151520                       # Energy for precharge background per rank (pJ) (Joule)
system.mem_ctrls.dram.rank0.actPowerDownEnergy            0                       # Energy for active power-down per rank (pJ) (Joule)
system.mem_ctrls.dram.rank0.prePowerDownEnergy            0                       # Energy for precharge power-down per rank (pJ) (Joule)
system.mem_ctrls.dram.rank0.selfRefreshEnergy            0                       # Energy for self refresh per rank (pJ) (Joule)
system.mem_ctrls.dram.rank0.totalEnergy   59051916825                       # Total energy per rank (pJ) (Joule)
system.mem_ctrls.dram.rank0.averagePower   620.445426                       # Core power per rank (mW) (Watt)
system.mem_ctrls.dram.rank0.totalIdleTime            0                       # Total Idle time Per DRAM Rank (Tick)
system.mem_ctrls.dram.rank0.pwrStateTime::IDLE  21539759000                       # Time in different power states (Tick)
system.mem_ctrls.dram.rank0.pwrStateTime::REF   3177980000                       # Time in different power states (Tick)
system.mem_ctrls.dram.rank0.pwrStateTime::SREF            0                       # Time in different power states (Tick)
system.mem_ctrls.dram.rank0.pwrStateTime::PRE_PDN            0                       # Time in different power states (Tick)
system.mem_ctrls.dram.rank0.pwrStateTime::ACT  70458910500                       # Time in different power states (Tick)
system.mem_ctrls.dram.rank0.pwrStateTime::ACT_PDN            0                       # Time in different power states (Tick)
system.mem_ctrls.dram.rank1.actEnergy       705489120                       # Energy for activate commands per rank (pJ) (Joule)
system.mem_ctrls.dram.rank1.preEnergy       374968770                       # Energy for precharge commands per rank (pJ) (Joule)
system.mem_ctrls.dram.rank1.readEnergy     5014814700                       # Energy for read commands per rank (pJ) (Joule)
system.mem_ctrls.dram.rank1.writeEnergy    3656067120                       # Energy for write commands per rank (pJ) (Joule)
system.mem_ctrls.dram.rank1.refreshEnergy 7512744720.000001                       # Energy for refresh commands per rank (pJ) (Joule)
system.mem_ctrls.dram.rank1.actBackEnergy  33134467650                       # Energy for active background per rank (pJ) (Joule)
system.mem_ctrls.dram.rank1.preBackEnergy   8645124000                       # Energy for precharge background per rank (pJ) (Joule)
system.mem_ctrls.dram.rank1.actPowerDownEnergy            0                       # Energy for active power-down per rank (pJ) (Joule)
system.mem_ctrls.dram.rank1.prePowerDownEnergy            0                       # Energy for precharge power-down per rank (pJ) (Joule)
system.mem_ctrls.dram.rank1.selfRefreshEnergy            0                       # Energy for self refresh per rank (pJ) (Joule)
system.mem_ctrls.dram.rank1.totalEnergy   59043676080                       # Total energy per rank (pJ) (Joule)
system.mem_ctrls.dram.rank1.averagePower   620.358842                       # Core power per rank (mW) (Watt)
system.mem_ctrls.dram.rank1.totalIdleTime            0                       # Total Idle time Per DRAM Rank (Tick)
system.mem_ctrls.dram.rank1.pwrStateTime::IDLE  21556871750                       # Time in different power states (Tick)
system.mem_ctrls.dram.rank1.pwrStateTime::REF   3177980000                       # Time in different power states (Tick)
system.mem_ctrls.dram.rank1.pwrStateTime::SREF            0                       # Time in different power states (Tick)
system.mem_ctrls.dram.rank1.pwrStateTime::PRE_PDN            0                       # Time in different power states (Tick)
system.mem_ctrls.dram.rank1.pwrStateTime::ACT  70441797750                       # Time in different power states (Tick)
system.mem_ctrls.dram.rank1.pwrStateTime::ACT_PDN            0                       # Time in different power states (Tick)
system.mem_ctrls.power_state.pwrStateResidencyTicks::UNDEFINED  95176649500                       # Cumulative time (in ticks) in various power states (Tick)
system.membus.transDist::ReadResp                3801                       # Transaction distribution (Count)
system.membus.transDist::WritebackDirty       1400519                       # Transaction distribution (Count)
system.membus.transDist::WritebackClean           843                       # Transaction distribution (Count)
system.membus.transDist::CleanEvict              2346                       # Transaction distribution (Count)
system.membus.transDist::ReadExReq            1401436                       # Transaction distribution (Count)
system.membus.transDist::ReadExResp           1401436                       # Transaction distribution (Count)
system.membus.transDist::ReadCleanReq            1348                       # Transaction distribution (Count)
system.membus.transDist::ReadSharedReq           2453                       # Transaction distribution (Count)
system.membus.pktCount_system.cpu.icache.mem_side_port::system.mem_ctrls.port         3539                       # Packet count per connected requestor and responder (Count)
system.membus.pktCount_system.cpu.icache.mem_side_port::total         3539                       # Packet count per connected requestor and responder (Count)
system.membus.pktCount_system.cpu.dcache.mem_side_port::system.mem_ctrls.port      4210643                       # Packet count per connected requestor and responder (Count)
system.membus.pktCount_system.cpu.dcache.mem_side_port::total      4210643                       # Packet count per connected requestor and responder (Count)
system.membus.pktCount::total                 4214182                       # Packet count per connected requestor and responder (Count)
system.membus.pktSize_system.cpu.icache.mem_side_port::system.mem_ctrls.port       140224                       # Cumulative packet size per connected requestor and responder (Byte)
system.membus.pktSize_system.cpu.icache.mem_side_port::total       140224                       # Cumulative packet size per connected requestor and responder (Byte)
system.membus.pktSize_system.cpu.dcache.mem_side_port::system.mem_ctrls.port    179482112                       # Cumulative packet size per connected requestor and responder (Byte)
system.membus.pktSize_system.cpu.dcache.mem_side_port::total    179482112                       # Cumulative packet size per connected requestor and responder (Byte)
system.membus.pktSize::total                179622336                       # Cumulative packet size per connected requestor and responder (Byte)
system.membus.snoops                                0                       # Total snoops (Count)
system.membus.snoopTraffic                          0                       # Total snoop traffic (Byte)
system.membus.snoopFanout::samples            1405237                       # Request fanout histogram (Count)
system.membus.snoopFanout::mean              0.000004                       # Request fanout histogram (Count)
system.membus.snoopFanout::stdev             0.001886                       # Request fanout histogram (Count)
system.membus.snoopFanout::underflows               0      0.00%      0.00% # Request fanout histogram (Count)
system.membus.snoopFanout::0                  1405232    100.00%    100.00% # Request fanout histogram (Count)
system.membus.snoopFanout::1                        5      0.00%    100.00% # Request fanout histogram (Count)
system.membus.snoopFanout::2                        0      0.00%    100.00% # Request fanout histogram (Count)
system.membus.snoopFanout::3                        0      0.00%    100.00% # Request fanout histogram (Count)
system.membus.snoopFanout::4                        0      0.00%    100.00% # Request fanout histogram (Count)
system.membus.snoopFanout::overflows                0      0.00%    100.00% # Request fanout histogram (Count)
system.membus.snoopFanout::min_value                0                       # Request fanout histogram (Count)
system.membus.snoopFanout::max_value                1                       # Request fanout histogram (Count)
system.membus.snoopFanout::total              1405237                       # Request fanout histogram (Count)
system.membus.power_state.pwrStateResidencyTicks::UNDEFINED  95176649500                       # Cumulative time (in ticks) in various power states (Tick)
system.membus.reqLayer2.occupancy          8415193000                       # Layer occupancy (ticks) (Tick)
system.membus.reqLayer2.utilization               0.1                       # Layer utilization (Ratio)
system.membus.respLayer1.occupancy            7124749                       # Layer occupancy (ticks) (Tick)
system.membus.respLayer1.utilization              0.0                       # Layer utilization (Ratio)
system.membus.respLayer2.occupancy         7389739250                       # Layer occupancy (ticks) (Tick)
system.membus.respLayer2.utilization              0.1                       # Layer utilization (Ratio)
system.membus.snoop_filter.totRequests        2808945                       # Total number of requests made to the snoop filter. (Count)
system.membus.snoop_filter.hitSingleRequests      1403708                       # Number of requests hitting in the snoop filter with a single holder of the requested data. (Count)
system.membus.snoop_filter.hitMultiRequests            5                       # Number of requests hitting in the snoop filter with multiple (>1) holders of the requested data. (Count)
system.membus.snoop_filter.totSnoops                0                       # Total number of snoops made to the snoop filter. (Count)
system.membus.snoop_filter.hitSingleSnoops            0                       # Number of snoops hitting in the snoop filter with a single holder of the requested data. (Count)
system.membus.snoop_filter.hitMultiSnoops            0                       # Number of snoops hitting in the snoop filter with multiple (>1) holders of the requested data. (Count)
system.voltage_domain.voltage                       1                       # Voltage in Volts (Volt)
system.workload.inst.arm                            0                       # number of arm instructions executed (Count)
system.workload.inst.quiesce                        0                       # number of quiesce instructions executed (Count)
system.cpu.loadValPred.constant_verification_unit.constLoadHits        12843                       # Number of loads marked constant that hit in the CVU CAM (Unspecified)
system.cpu.loadValPred.constant_verification_unit.constLoadMisses        10261                       # Number of loads marked constant that missed in the CVU CAM (Unspecified)
system.cpu.loadValPred.constant_verification_unit.numCAMReplacements         7343                       # Number of CVU CAM entries replaced (Unspecified)
system.cpu.loadValPred.constant_verification_unit.numLoadAccesses        23104                       # Number of loads marked constant which accessed the CVU (Unspecified)
system.cpu.loadValPred.constant_verification_unit.numStoreAccesses     11279358                       # Number of store instructions which accessed the CVU (Unspecified)
system.cpu.loadValPred.constant_verification_unit.numStoreHits         3087                       # Number of stores that hit in the CVU CAM (Unspecified)
system.cpu.loadValPred.constant_verification_unit.numStoreMisses     11276271                       # Number of stores that missed in the CVU CAM (Unspecified)
system.cpu.loadValPred.correctTotal             30374                       # Number predictions corrects for predictable verification (Unspecified)
system.cpu.loadValPred.numConstLoads            26029                       # Number of loads classified as constant (Unspecified)
system.cpu.loadValPred.numConstLoadsCorrect        12843                       # Number of constant loads correctly predicted (Unspecified)
system.cpu.loadValPred.numConstLoadsMispredicted        10261                       # Number of constant loads incorrectly predicted (Unspecified)
system.cpu.loadValPred.numConstValOne             384                       # Number of constant loads with value 1 (Unspecified)
system.cpu.loadValPred.numConstValZero           2565                       # Number of constant loads with value 0 (Unspecified)
system.cpu.loadValPred.numPredictableLoads        15000                       # Number of loads classified as predictable (Unspecified)
system.cpu.loadValPred.numPredictableLoadsCorrect        10267                       # Number of loads correctly classified as predictable (Unspecified)
system.cpu.loadValPred.numPredictableLoadsIncorrect         2947                       # Number of loads incorrectly classified as predictable (Unspecified)
system.cpu.loadValPred.totalLoads               86539                       # Total loads processed by the Load value predictor (Unspecified)
system.cpu.loadValPred.valueLocalityNumerator        40383                       # Number predictions corrects (Unspecified)

---------- End Simulation Statistics   ----------
