
---------- Begin Simulation Statistics ----------
simSeconds                                   0.005335                       # Number of seconds simulated (Second)
simTicks                                   5334863000                       # Number of ticks simulated (Tick)
finalTick                                  5334863000                       # Number of ticks from beginning of simulation (restored from checkpoints and never reset) (Tick)
simFreq                                  1000000000000                       # The number of ticks per simulated second ((Tick/Second))
hostSeconds                                    101.65                       # Real time elapsed on the host (Second)
hostTickRate                                 52483607                       # The number of ticks simulated per host second (ticks/s) ((Tick/Second))
hostMemory                                    8772320                       # Number of bytes of host memory used (Byte)
simInsts                                     10000001                       # Number of instructions simulated (Count)
simOps                                       18680745                       # Number of ops (including micro ops) simulated (Count)
hostInstRate                                    98378                       # Simulator instruction rate (inst/s) ((Count/Second))
hostOpRate                                     183778                       # Simulator op (including micro ops) rate (op/s) ((Count/Second))
system.clk_domain.clock                          1000                       # Clock period in ticks (Tick)
system.cpu.numCycles                         10669727                       # Number of cpu cycles simulated (Cycle)
system.cpu.numWorkItemsStarted                      0                       # Number of work items this cpu started (Count)
system.cpu.numWorkItemsCompleted                    0                       # Number of work items this cpu completed (Count)
system.cpu.instsAdded                        24343909                       # Number of instructions added to the IQ (excludes non-spec) (Count)
system.cpu.nonSpecInstsAdded                      315                       # Number of non-speculative instructions added to the IQ (Count)
system.cpu.instsIssued                       22305385                       # Number of instructions issued (Count)
system.cpu.squashedInstsIssued                  17613                       # Number of squashed instructions issued (Count)
system.cpu.squashedInstsExamined              5663465                       # Number of squashed instructions iterated over during squash; mainly for profiling (Count)
system.cpu.squashedOperandsExamined          12472824                       # Number of squashed operands that are examined and possibly removed from graph (Count)
system.cpu.squashedNonSpecRemoved                 162                       # Number of squashed non-spec instructions that were removed (Count)
system.cpu.numIssuedDist::samples             9978646                       # Number of insts issued each cycle (Count)
system.cpu.numIssuedDist::mean               2.235312                       # Number of insts issued each cycle (Count)
system.cpu.numIssuedDist::stdev              2.328749                       # Number of insts issued each cycle (Count)
system.cpu.numIssuedDist::underflows                0      0.00%      0.00% # Number of insts issued each cycle (Count)
system.cpu.numIssuedDist::0                   3833054     38.41%     38.41% # Number of insts issued each cycle (Count)
system.cpu.numIssuedDist::1                    925843      9.28%     47.69% # Number of insts issued each cycle (Count)
system.cpu.numIssuedDist::2                   1228870     12.31%     60.01% # Number of insts issued each cycle (Count)
system.cpu.numIssuedDist::3                   1025394     10.28%     70.28% # Number of insts issued each cycle (Count)
system.cpu.numIssuedDist::4                    916813      9.19%     79.47% # Number of insts issued each cycle (Count)
system.cpu.numIssuedDist::5                    817065      8.19%     87.66% # Number of insts issued each cycle (Count)
system.cpu.numIssuedDist::6                    691616      6.93%     94.59% # Number of insts issued each cycle (Count)
system.cpu.numIssuedDist::7                    376581      3.77%     98.36% # Number of insts issued each cycle (Count)
system.cpu.numIssuedDist::8                    163410      1.64%    100.00% # Number of insts issued each cycle (Count)
system.cpu.numIssuedDist::overflows                 0      0.00%    100.00% # Number of insts issued each cycle (Count)
system.cpu.numIssuedDist::min_value                 0                       # Number of insts issued each cycle (Count)
system.cpu.numIssuedDist::max_value                 8                       # Number of insts issued each cycle (Count)
system.cpu.numIssuedDist::total               9978646                       # Number of insts issued each cycle (Count)
system.cpu.statFuBusy::No_OpClass                   0      0.00%      0.00% # attempts to use FU when none available (Count)
system.cpu.statFuBusy::IntAlu                  292107     84.69%     84.69% # attempts to use FU when none available (Count)
system.cpu.statFuBusy::IntMult                      0      0.00%     84.69% # attempts to use FU when none available (Count)
system.cpu.statFuBusy::IntDiv                       0      0.00%     84.69% # attempts to use FU when none available (Count)
system.cpu.statFuBusy::FloatAdd                     0      0.00%     84.69% # attempts to use FU when none available (Count)
system.cpu.statFuBusy::FloatCmp                     0      0.00%     84.69% # attempts to use FU when none available (Count)
system.cpu.statFuBusy::FloatCvt                     4      0.00%     84.69% # attempts to use FU when none available (Count)
system.cpu.statFuBusy::FloatMult                    0      0.00%     84.69% # attempts to use FU when none available (Count)
system.cpu.statFuBusy::FloatMultAcc                 0      0.00%     84.69% # attempts to use FU when none available (Count)
system.cpu.statFuBusy::FloatDiv                     0      0.00%     84.69% # attempts to use FU when none available (Count)
system.cpu.statFuBusy::FloatMisc                    0      0.00%     84.69% # attempts to use FU when none available (Count)
system.cpu.statFuBusy::FloatSqrt                    0      0.00%     84.69% # attempts to use FU when none available (Count)
system.cpu.statFuBusy::SimdAdd                      0      0.00%     84.69% # attempts to use FU when none available (Count)
system.cpu.statFuBusy::SimdAddAcc                   0      0.00%     84.69% # attempts to use FU when none available (Count)
system.cpu.statFuBusy::SimdAlu                      0      0.00%     84.69% # attempts to use FU when none available (Count)
system.cpu.statFuBusy::SimdCmp                      0      0.00%     84.69% # attempts to use FU when none available (Count)
system.cpu.statFuBusy::SimdCvt                      4      0.00%     84.69% # attempts to use FU when none available (Count)
system.cpu.statFuBusy::SimdMisc                     0      0.00%     84.69% # attempts to use FU when none available (Count)
system.cpu.statFuBusy::SimdMult                     0      0.00%     84.69% # attempts to use FU when none available (Count)
system.cpu.statFuBusy::SimdMultAcc                  0      0.00%     84.69% # attempts to use FU when none available (Count)
system.cpu.statFuBusy::SimdShift                    4      0.00%     84.69% # attempts to use FU when none available (Count)
system.cpu.statFuBusy::SimdShiftAcc                 0      0.00%     84.69% # attempts to use FU when none available (Count)
system.cpu.statFuBusy::SimdDiv                      0      0.00%     84.69% # attempts to use FU when none available (Count)
system.cpu.statFuBusy::SimdSqrt                     0      0.00%     84.69% # attempts to use FU when none available (Count)
system.cpu.statFuBusy::SimdFloatAdd                 0      0.00%     84.69% # attempts to use FU when none available (Count)
system.cpu.statFuBusy::SimdFloatAlu                 0      0.00%     84.69% # attempts to use FU when none available (Count)
system.cpu.statFuBusy::SimdFloatCmp                 0      0.00%     84.69% # attempts to use FU when none available (Count)
system.cpu.statFuBusy::SimdFloatCvt                 0      0.00%     84.69% # attempts to use FU when none available (Count)
system.cpu.statFuBusy::SimdFloatDiv                 0      0.00%     84.69% # attempts to use FU when none available (Count)
system.cpu.statFuBusy::SimdFloatMisc                0      0.00%     84.69% # attempts to use FU when none available (Count)
system.cpu.statFuBusy::SimdFloatMult                0      0.00%     84.69% # attempts to use FU when none available (Count)
system.cpu.statFuBusy::SimdFloatMultAcc             0      0.00%     84.69% # attempts to use FU when none available (Count)
system.cpu.statFuBusy::SimdFloatSqrt                0      0.00%     84.69% # attempts to use FU when none available (Count)
system.cpu.statFuBusy::SimdReduceAdd                0      0.00%     84.69% # attempts to use FU when none available (Count)
system.cpu.statFuBusy::SimdReduceAlu                0      0.00%     84.69% # attempts to use FU when none available (Count)
system.cpu.statFuBusy::SimdReduceCmp                0      0.00%     84.69% # attempts to use FU when none available (Count)
system.cpu.statFuBusy::SimdFloatReduceAdd            0      0.00%     84.69% # attempts to use FU when none available (Count)
system.cpu.statFuBusy::SimdFloatReduceCmp            0      0.00%     84.69% # attempts to use FU when none available (Count)
system.cpu.statFuBusy::SimdAes                      0      0.00%     84.69% # attempts to use FU when none available (Count)
system.cpu.statFuBusy::SimdAesMix                   0      0.00%     84.69% # attempts to use FU when none available (Count)
system.cpu.statFuBusy::SimdSha1Hash                 0      0.00%     84.69% # attempts to use FU when none available (Count)
system.cpu.statFuBusy::SimdSha1Hash2                0      0.00%     84.69% # attempts to use FU when none available (Count)
system.cpu.statFuBusy::SimdSha256Hash               0      0.00%     84.69% # attempts to use FU when none available (Count)
system.cpu.statFuBusy::SimdSha256Hash2              0      0.00%     84.69% # attempts to use FU when none available (Count)
system.cpu.statFuBusy::SimdShaSigma2                0      0.00%     84.69% # attempts to use FU when none available (Count)
system.cpu.statFuBusy::SimdShaSigma3                0      0.00%     84.69% # attempts to use FU when none available (Count)
system.cpu.statFuBusy::SimdPredAlu                  0      0.00%     84.69% # attempts to use FU when none available (Count)
system.cpu.statFuBusy::MemRead                  41279     11.97%     96.66% # attempts to use FU when none available (Count)
system.cpu.statFuBusy::MemWrite                 11123      3.22%     99.89% # attempts to use FU when none available (Count)
system.cpu.statFuBusy::FloatMemRead               374      0.11%    100.00% # attempts to use FU when none available (Count)
system.cpu.statFuBusy::FloatMemWrite               16      0.00%    100.00% # attempts to use FU when none available (Count)
system.cpu.statFuBusy::IprAccess                    0      0.00%    100.00% # attempts to use FU when none available (Count)
system.cpu.statFuBusy::InstPrefetch                 0      0.00%    100.00% # attempts to use FU when none available (Count)
system.cpu.statIssuedInstType_0::No_OpClass        68671      0.31%      0.31% # Number of instructions issued per FU type, per thread (Count)
system.cpu.statIssuedInstType_0::IntAlu      18020447     80.79%     81.10% # Number of instructions issued per FU type, per thread (Count)
system.cpu.statIssuedInstType_0::IntMult         9528      0.04%     81.14% # Number of instructions issued per FU type, per thread (Count)
system.cpu.statIssuedInstType_0::IntDiv        157880      0.71%     81.85% # Number of instructions issued per FU type, per thread (Count)
system.cpu.statIssuedInstType_0::FloatAdd        15094      0.07%     81.92% # Number of instructions issued per FU type, per thread (Count)
system.cpu.statIssuedInstType_0::FloatCmp            0      0.00%     81.92% # Number of instructions issued per FU type, per thread (Count)
system.cpu.statIssuedInstType_0::FloatCvt          340      0.00%     81.92% # Number of instructions issued per FU type, per thread (Count)
system.cpu.statIssuedInstType_0::FloatMult            0      0.00%     81.92% # Number of instructions issued per FU type, per thread (Count)
system.cpu.statIssuedInstType_0::FloatMultAcc            0      0.00%     81.92% # Number of instructions issued per FU type, per thread (Count)
system.cpu.statIssuedInstType_0::FloatDiv            1      0.00%     81.92% # Number of instructions issued per FU type, per thread (Count)
system.cpu.statIssuedInstType_0::FloatMisc            0      0.00%     81.92% # Number of instructions issued per FU type, per thread (Count)
system.cpu.statIssuedInstType_0::FloatSqrt            0      0.00%     81.92% # Number of instructions issued per FU type, per thread (Count)
system.cpu.statIssuedInstType_0::SimdAdd         1556      0.01%     81.92% # Number of instructions issued per FU type, per thread (Count)
system.cpu.statIssuedInstType_0::SimdAddAcc            0      0.00%     81.92% # Number of instructions issued per FU type, per thread (Count)
system.cpu.statIssuedInstType_0::SimdAlu        13461      0.06%     81.98% # Number of instructions issued per FU type, per thread (Count)
system.cpu.statIssuedInstType_0::SimdCmp            0      0.00%     81.98% # Number of instructions issued per FU type, per thread (Count)
system.cpu.statIssuedInstType_0::SimdCvt        15018      0.07%     82.05% # Number of instructions issued per FU type, per thread (Count)
system.cpu.statIssuedInstType_0::SimdMisc        13230      0.06%     82.11% # Number of instructions issued per FU type, per thread (Count)
system.cpu.statIssuedInstType_0::SimdMult            0      0.00%     82.11% # Number of instructions issued per FU type, per thread (Count)
system.cpu.statIssuedInstType_0::SimdMultAcc            0      0.00%     82.11% # Number of instructions issued per FU type, per thread (Count)
system.cpu.statIssuedInstType_0::SimdShift         1062      0.00%     82.12% # Number of instructions issued per FU type, per thread (Count)
system.cpu.statIssuedInstType_0::SimdShiftAcc            0      0.00%     82.12% # Number of instructions issued per FU type, per thread (Count)
system.cpu.statIssuedInstType_0::SimdDiv            0      0.00%     82.12% # Number of instructions issued per FU type, per thread (Count)
system.cpu.statIssuedInstType_0::SimdSqrt            0      0.00%     82.12% # Number of instructions issued per FU type, per thread (Count)
system.cpu.statIssuedInstType_0::SimdFloatAdd           23      0.00%     82.12% # Number of instructions issued per FU type, per thread (Count)
system.cpu.statIssuedInstType_0::SimdFloatAlu            0      0.00%     82.12% # Number of instructions issued per FU type, per thread (Count)
system.cpu.statIssuedInstType_0::SimdFloatCmp            0      0.00%     82.12% # Number of instructions issued per FU type, per thread (Count)
system.cpu.statIssuedInstType_0::SimdFloatCvt            5      0.00%     82.12% # Number of instructions issued per FU type, per thread (Count)
system.cpu.statIssuedInstType_0::SimdFloatDiv           11      0.00%     82.12% # Number of instructions issued per FU type, per thread (Count)
system.cpu.statIssuedInstType_0::SimdFloatMisc            0      0.00%     82.12% # Number of instructions issued per FU type, per thread (Count)
system.cpu.statIssuedInstType_0::SimdFloatMult           50      0.00%     82.12% # Number of instructions issued per FU type, per thread (Count)
system.cpu.statIssuedInstType_0::SimdFloatMultAcc            0      0.00%     82.12% # Number of instructions issued per FU type, per thread (Count)
system.cpu.statIssuedInstType_0::SimdFloatSqrt            0      0.00%     82.12% # Number of instructions issued per FU type, per thread (Count)
system.cpu.statIssuedInstType_0::SimdReduceAdd            0      0.00%     82.12% # Number of instructions issued per FU type, per thread (Count)
system.cpu.statIssuedInstType_0::SimdReduceAlu            0      0.00%     82.12% # Number of instructions issued per FU type, per thread (Count)
system.cpu.statIssuedInstType_0::SimdReduceCmp            0      0.00%     82.12% # Number of instructions issued per FU type, per thread (Count)
system.cpu.statIssuedInstType_0::SimdFloatReduceAdd            0      0.00%     82.12% # Number of instructions issued per FU type, per thread (Count)
system.cpu.statIssuedInstType_0::SimdFloatReduceCmp            0      0.00%     82.12% # Number of instructions issued per FU type, per thread (Count)
system.cpu.statIssuedInstType_0::SimdAes            0      0.00%     82.12% # Number of instructions issued per FU type, per thread (Count)
system.cpu.statIssuedInstType_0::SimdAesMix            0      0.00%     82.12% # Number of instructions issued per FU type, per thread (Count)
system.cpu.statIssuedInstType_0::SimdSha1Hash            0      0.00%     82.12% # Number of instructions issued per FU type, per thread (Count)
system.cpu.statIssuedInstType_0::SimdSha1Hash2            0      0.00%     82.12% # Number of instructions issued per FU type, per thread (Count)
system.cpu.statIssuedInstType_0::SimdSha256Hash            0      0.00%     82.12% # Number of instructions issued per FU type, per thread (Count)
system.cpu.statIssuedInstType_0::SimdSha256Hash2            0      0.00%     82.12% # Number of instructions issued per FU type, per thread (Count)
system.cpu.statIssuedInstType_0::SimdShaSigma2            0      0.00%     82.12% # Number of instructions issued per FU type, per thread (Count)
system.cpu.statIssuedInstType_0::SimdShaSigma3            0      0.00%     82.12% # Number of instructions issued per FU type, per thread (Count)
system.cpu.statIssuedInstType_0::SimdPredAlu            0      0.00%     82.12% # Number of instructions issued per FU type, per thread (Count)
system.cpu.statIssuedInstType_0::MemRead      2691692     12.07%     94.18% # Number of instructions issued per FU type, per thread (Count)
system.cpu.statIssuedInstType_0::MemWrite      1251831      5.61%     99.80% # Number of instructions issued per FU type, per thread (Count)
system.cpu.statIssuedInstType_0::FloatMemRead        31405      0.14%     99.94% # Number of instructions issued per FU type, per thread (Count)
system.cpu.statIssuedInstType_0::FloatMemWrite        14080      0.06%    100.00% # Number of instructions issued per FU type, per thread (Count)
system.cpu.statIssuedInstType_0::IprAccess            0      0.00%    100.00% # Number of instructions issued per FU type, per thread (Count)
system.cpu.statIssuedInstType_0::InstPrefetch            0      0.00%    100.00% # Number of instructions issued per FU type, per thread (Count)
system.cpu.statIssuedInstType_0::total       22305385                       # Number of instructions issued per FU type, per thread (Count)
system.cpu.issueRate                         2.090530                       # Inst issue rate ((Count/Cycle))
system.cpu.fuBusy                              344911                       # FU busy when requested (Count)
system.cpu.fuBusyRate                        0.015463                       # FU busy rate (busy events/executed inst) ((Count/Count))
system.cpu.intInstQueueReads                 54740287                       # Number of integer instruction queue reads (Count)
system.cpu.intInstQueueWrites                29872116                       # Number of integer instruction queue writes (Count)
system.cpu.intInstQueueWakeupAccesses        21663596                       # Number of integer instruction queue wakeup accesses (Count)
system.cpu.fpInstQueueReads                    211652                       # Number of floating instruction queue reads (Count)
system.cpu.fpInstQueueWrites                   136116                       # Number of floating instruction queue writes (Count)
system.cpu.fpInstQueueWakeupAccesses           101052                       # Number of floating instruction queue wakeup accesses (Count)
system.cpu.vecInstQueueReads                        0                       # Number of vector instruction queue reads (Count)
system.cpu.vecInstQueueWrites                       0                       # Number of vector instruction queue writes (Count)
system.cpu.vecInstQueueWakeupAccesses               0                       # Number of vector instruction queue wakeup accesses (Count)
system.cpu.intAluAccesses                    22475671                       # Number of integer alu accesses (Count)
system.cpu.fpAluAccesses                       105954                       # Number of floating point alu accesses (Count)
system.cpu.vecAluAccesses                           0                       # Number of vector alu accesses (Count)
system.cpu.numInsts                          21957838                       # Number of executed instructions (Count)
system.cpu.numLoadInsts                       2654856                       # Number of load instructions executed (Count)
system.cpu.numSquashedInsts                    347546                       # Number of squashed instructions skipped in execute (Count)
system.cpu.numSwp                                   0                       # Number of swp insts executed (Count)
system.cpu.numNop                                   0                       # Number of nop insts executed (Count)
system.cpu.numRefs                            3890574                       # Number of memory reference insts executed (Count)
system.cpu.numBranches                        2315972                       # Number of branches executed (Count)
system.cpu.numStoreInsts                      1235718                       # Number of stores executed (Count)
system.cpu.numRate                           2.057957                       # Inst execution rate ((Count/Cycle))
system.cpu.timesIdled                           29316                       # Number of times that the entire CPU went into an idle state and unscheduled itself (Count)
system.cpu.idleCycles                          691081                       # Total number of cycles that the CPU has spent unscheduled due to idling (Cycle)
system.cpu.committedInsts                    10000001                       # Number of Instructions Simulated (Count)
system.cpu.committedOps                      18680745                       # Number of Ops (including micro ops) Simulated (Count)
system.cpu.cpi                               1.066973                       # CPI: Cycles Per Instruction ((Cycle/Count))
system.cpu.totalCpi                          1.066973                       # CPI: Total CPI of All Threads ((Cycle/Count))
system.cpu.ipc                               0.937231                       # IPC: Instructions Per Cycle ((Count/Cycle))
system.cpu.totalIpc                          0.937231                       # IPC: Total IPC of All Threads ((Count/Cycle))
system.cpu.intRegfileReads                   32561564                       # Number of integer regfile reads (Count)
system.cpu.intRegfileWrites                  17938657                       # Number of integer regfile writes (Count)
system.cpu.fpRegfileReads                      140177                       # Number of floating regfile reads (Count)
system.cpu.fpRegfileWrites                      80934                       # Number of floating regfile writes (Count)
system.cpu.ccRegfileReads                    13478439                       # number of cc regfile reads (Count)
system.cpu.ccRegfileWrites                    8192737                       # number of cc regfile writes (Count)
system.cpu.miscRegfileReads                   8707759                       # number of misc regfile reads (Count)
system.cpu.miscRegfileWrites                      153                       # number of misc regfile writes (Count)
system.cpu.MemDepUnit__0.insertedLoads        2945336                       # Number of loads inserted to the mem dependence unit. (Count)
system.cpu.MemDepUnit__0.insertedStores       1391420                       # Number of stores inserted to the mem dependence unit. (Count)
system.cpu.MemDepUnit__0.conflictingLoads       220675                       # Number of conflicting loads. (Count)
system.cpu.MemDepUnit__0.conflictingStores       143646                       # Number of conflicting stores. (Count)
system.cpu.MemDepUnit__1.insertedLoads              0                       # Number of loads inserted to the mem dependence unit. (Count)
system.cpu.MemDepUnit__1.insertedStores             0                       # Number of stores inserted to the mem dependence unit. (Count)
system.cpu.MemDepUnit__1.conflictingLoads            0                       # Number of conflicting loads. (Count)
system.cpu.MemDepUnit__1.conflictingStores            0                       # Number of conflicting stores. (Count)
system.cpu.MemDepUnit__2.insertedLoads              0                       # Number of loads inserted to the mem dependence unit. (Count)
system.cpu.MemDepUnit__2.insertedStores             0                       # Number of stores inserted to the mem dependence unit. (Count)
system.cpu.MemDepUnit__2.conflictingLoads            0                       # Number of conflicting loads. (Count)
system.cpu.MemDepUnit__2.conflictingStores            0                       # Number of conflicting stores. (Count)
system.cpu.MemDepUnit__3.insertedLoads              0                       # Number of loads inserted to the mem dependence unit. (Count)
system.cpu.MemDepUnit__3.insertedStores             0                       # Number of stores inserted to the mem dependence unit. (Count)
system.cpu.MemDepUnit__3.conflictingLoads            0                       # Number of conflicting loads. (Count)
system.cpu.MemDepUnit__3.conflictingStores            0                       # Number of conflicting stores. (Count)
system.cpu.branchPred.lookups                 3117567                       # Number of BP lookups (Count)
system.cpu.branchPred.condPredicted           2534412                       # Number of conditional branches predicted (Count)
system.cpu.branchPred.condIncorrect             59330                       # Number of conditional branches incorrect (Count)
system.cpu.branchPred.BTBLookups              1523651                       # Number of BTB lookups (Count)
system.cpu.branchPred.BTBHits                 1502504                       # Number of BTB hits (Count)
system.cpu.branchPred.BTBHitRatio            0.986121                       # BTB Hit Ratio (Ratio)
system.cpu.branchPred.RASUsed                  138585                       # Number of times the RAS was used to get a target. (Count)
system.cpu.branchPred.RASIncorrect                 11                       # Number of incorrect RAS predictions. (Count)
system.cpu.branchPred.indirectLookups           24765                       # Number of indirect predictor lookups. (Count)
system.cpu.branchPred.indirectHits              21963                       # Number of indirect target hits. (Count)
system.cpu.branchPred.indirectMisses             2802                       # Number of indirect misses. (Count)
system.cpu.branchPred.indirectMispredicted          604                       # Number of mispredicted indirect branches. (Count)
system.cpu.commit.commitSquashedInsts         5653357                       # The number of squashed insts skipped by commit (Count)
system.cpu.commit.commitNonSpecStalls             153                       # The number of times commit has been forced to stall to communicate backwards (Count)
system.cpu.commit.branchMispredicts            167176                       # The number of times a branch was mispredicted (Count)
system.cpu.commit.numCommittedDist::samples      9164663                       # Number of insts commited each cycle (Count)
system.cpu.commit.numCommittedDist::mean     2.038345                       # Number of insts commited each cycle (Count)
system.cpu.commit.numCommittedDist::stdev     2.600773                       # Number of insts commited each cycle (Count)
system.cpu.commit.numCommittedDist::underflows            0      0.00%      0.00% # Number of insts commited each cycle (Count)
system.cpu.commit.numCommittedDist::0         3930733     42.89%     42.89% # Number of insts commited each cycle (Count)
system.cpu.commit.numCommittedDist::1         1429858     15.60%     58.49% # Number of insts commited each cycle (Count)
system.cpu.commit.numCommittedDist::2          830473      9.06%     67.55% # Number of insts commited each cycle (Count)
system.cpu.commit.numCommittedDist::3         1069077     11.67%     79.22% # Number of insts commited each cycle (Count)
system.cpu.commit.numCommittedDist::4          372124      4.06%     83.28% # Number of insts commited each cycle (Count)
system.cpu.commit.numCommittedDist::5          301307      3.29%     86.57% # Number of insts commited each cycle (Count)
system.cpu.commit.numCommittedDist::6          166790      1.82%     88.39% # Number of insts commited each cycle (Count)
system.cpu.commit.numCommittedDist::7          127469      1.39%     89.78% # Number of insts commited each cycle (Count)
system.cpu.commit.numCommittedDist::8          936832     10.22%    100.00% # Number of insts commited each cycle (Count)
system.cpu.commit.numCommittedDist::overflows            0      0.00%    100.00% # Number of insts commited each cycle (Count)
system.cpu.commit.numCommittedDist::min_value            0                       # Number of insts commited each cycle (Count)
system.cpu.commit.numCommittedDist::max_value            8                       # Number of insts commited each cycle (Count)
system.cpu.commit.numCommittedDist::total      9164663                       # Number of insts commited each cycle (Count)
system.cpu.commit.instsCommitted             10000001                       # Number of instructions committed (Count)
system.cpu.commit.opsCommitted               18680745                       # Number of ops (including micro ops) committed (Count)
system.cpu.commit.memRefs                     3248831                       # Number of memory references committed (Count)
system.cpu.commit.loads                       2182663                       # Number of loads committed (Count)
system.cpu.commit.amos                              0                       # Number of atomic instructions committed (Count)
system.cpu.commit.membars                           0                       # Number of memory barriers committed (Count)
system.cpu.commit.branches                    2101127                       # Number of branches committed (Count)
system.cpu.commit.vectorInstructions                0                       # Number of committed Vector instructions. (Count)
system.cpu.commit.floating                      90670                       # Number of committed floating point instructions. (Count)
system.cpu.commit.integer                    18521173                       # Number of committed integer instructions. (Count)
system.cpu.commit.functionCalls                 87946                       # Number of function calls committed. (Count)
system.cpu.commit.committedInstType_0::No_OpClass        58291      0.31%      0.31% # Class of committed instruction (Count)
system.cpu.commit.committedInstType_0::IntAlu     15160779     81.16%     81.47% # Class of committed instruction (Count)
system.cpu.commit.committedInstType_0::IntMult         7803      0.04%     81.51% # Class of committed instruction (Count)
system.cpu.commit.committedInstType_0::IntDiv       151975      0.81%     82.32% # Class of committed instruction (Count)
system.cpu.commit.committedInstType_0::FloatAdd        11510      0.06%     82.39% # Class of committed instruction (Count)
system.cpu.commit.committedInstType_0::FloatCmp            0      0.00%     82.39% # Class of committed instruction (Count)
system.cpu.commit.committedInstType_0::FloatCvt          272      0.00%     82.39% # Class of committed instruction (Count)
system.cpu.commit.committedInstType_0::FloatMult            0      0.00%     82.39% # Class of committed instruction (Count)
system.cpu.commit.committedInstType_0::FloatMultAcc            0      0.00%     82.39% # Class of committed instruction (Count)
system.cpu.commit.committedInstType_0::FloatDiv            0      0.00%     82.39% # Class of committed instruction (Count)
system.cpu.commit.committedInstType_0::FloatMisc            0      0.00%     82.39% # Class of committed instruction (Count)
system.cpu.commit.committedInstType_0::FloatSqrt            0      0.00%     82.39% # Class of committed instruction (Count)
system.cpu.commit.committedInstType_0::SimdAdd         1178      0.01%     82.39% # Class of committed instruction (Count)
system.cpu.commit.committedInstType_0::SimdAddAcc            0      0.00%     82.39% # Class of committed instruction (Count)
system.cpu.commit.committedInstType_0::SimdAlu        12651      0.07%     82.46% # Class of committed instruction (Count)
system.cpu.commit.committedInstType_0::SimdCmp            0      0.00%     82.46% # Class of committed instruction (Count)
system.cpu.commit.committedInstType_0::SimdCvt        13812      0.07%     82.54% # Class of committed instruction (Count)
system.cpu.commit.committedInstType_0::SimdMisc        12991      0.07%     82.61% # Class of committed instruction (Count)
system.cpu.commit.committedInstType_0::SimdMult            0      0.00%     82.61% # Class of committed instruction (Count)
system.cpu.commit.committedInstType_0::SimdMultAcc            0      0.00%     82.61% # Class of committed instruction (Count)
system.cpu.commit.committedInstType_0::SimdShift          582      0.00%     82.61% # Class of committed instruction (Count)
system.cpu.commit.committedInstType_0::SimdShiftAcc            0      0.00%     82.61% # Class of committed instruction (Count)
system.cpu.commit.committedInstType_0::SimdDiv            0      0.00%     82.61% # Class of committed instruction (Count)
system.cpu.commit.committedInstType_0::SimdSqrt            0      0.00%     82.61% # Class of committed instruction (Count)
system.cpu.commit.committedInstType_0::SimdFloatAdd           21      0.00%     82.61% # Class of committed instruction (Count)
system.cpu.commit.committedInstType_0::SimdFloatAlu            0      0.00%     82.61% # Class of committed instruction (Count)
system.cpu.commit.committedInstType_0::SimdFloatCmp            0      0.00%     82.61% # Class of committed instruction (Count)
system.cpu.commit.committedInstType_0::SimdFloatCvt            4      0.00%     82.61% # Class of committed instruction (Count)
system.cpu.commit.committedInstType_0::SimdFloatDiv            9      0.00%     82.61% # Class of committed instruction (Count)
system.cpu.commit.committedInstType_0::SimdFloatMisc            0      0.00%     82.61% # Class of committed instruction (Count)
system.cpu.commit.committedInstType_0::SimdFloatMult           36      0.00%     82.61% # Class of committed instruction (Count)
system.cpu.commit.committedInstType_0::SimdFloatMultAcc            0      0.00%     82.61% # Class of committed instruction (Count)
system.cpu.commit.committedInstType_0::SimdFloatSqrt            0      0.00%     82.61% # Class of committed instruction (Count)
system.cpu.commit.committedInstType_0::SimdReduceAdd            0      0.00%     82.61% # Class of committed instruction (Count)
system.cpu.commit.committedInstType_0::SimdReduceAlu            0      0.00%     82.61% # Class of committed instruction (Count)
system.cpu.commit.committedInstType_0::SimdReduceCmp            0      0.00%     82.61% # Class of committed instruction (Count)
system.cpu.commit.committedInstType_0::SimdFloatReduceAdd            0      0.00%     82.61% # Class of committed instruction (Count)
system.cpu.commit.committedInstType_0::SimdFloatReduceCmp            0      0.00%     82.61% # Class of committed instruction (Count)
system.cpu.commit.committedInstType_0::SimdAes            0      0.00%     82.61% # Class of committed instruction (Count)
system.cpu.commit.committedInstType_0::SimdAesMix            0      0.00%     82.61% # Class of committed instruction (Count)
system.cpu.commit.committedInstType_0::SimdSha1Hash            0      0.00%     82.61% # Class of committed instruction (Count)
system.cpu.commit.committedInstType_0::SimdSha1Hash2            0      0.00%     82.61% # Class of committed instruction (Count)
system.cpu.commit.committedInstType_0::SimdSha256Hash            0      0.00%     82.61% # Class of committed instruction (Count)
system.cpu.commit.committedInstType_0::SimdSha256Hash2            0      0.00%     82.61% # Class of committed instruction (Count)
system.cpu.commit.committedInstType_0::SimdShaSigma2            0      0.00%     82.61% # Class of committed instruction (Count)
system.cpu.commit.committedInstType_0::SimdShaSigma3            0      0.00%     82.61% # Class of committed instruction (Count)
system.cpu.commit.committedInstType_0::SimdPredAlu            0      0.00%     82.61% # Class of committed instruction (Count)
system.cpu.commit.committedInstType_0::MemRead      2157043     11.55%     94.16% # Class of committed instruction (Count)
system.cpu.commit.committedInstType_0::MemWrite      1054329      5.64%     99.80% # Class of committed instruction (Count)
system.cpu.commit.committedInstType_0::FloatMemRead        25620      0.14%     99.94% # Class of committed instruction (Count)
system.cpu.commit.committedInstType_0::FloatMemWrite        11839      0.06%    100.00% # Class of committed instruction (Count)
system.cpu.commit.committedInstType_0::IprAccess            0      0.00%    100.00% # Class of committed instruction (Count)
system.cpu.commit.committedInstType_0::InstPrefetch            0      0.00%    100.00% # Class of committed instruction (Count)
system.cpu.commit.committedInstType_0::total     18680745                       # Class of committed instruction (Count)
system.cpu.commit.commitEligibleSamples        936832                       # number cycles where commit BW limit reached (Cycle)
system.cpu.dcache.demandHits::cpu.data        3373891                       # number of demand (read+write) hits (Count)
system.cpu.dcache.demandHits::total           3373891                       # number of demand (read+write) hits (Count)
system.cpu.dcache.overallHits::cpu.data       3373891                       # number of overall hits (Count)
system.cpu.dcache.overallHits::total          3373891                       # number of overall hits (Count)
system.cpu.dcache.demandMisses::cpu.data        59075                       # number of demand (read+write) misses (Count)
system.cpu.dcache.demandMisses::total           59075                       # number of demand (read+write) misses (Count)
system.cpu.dcache.overallMisses::cpu.data        59075                       # number of overall misses (Count)
system.cpu.dcache.overallMisses::total          59075                       # number of overall misses (Count)
system.cpu.dcache.demandMissLatency::cpu.data   3700594971                       # number of demand (read+write) miss ticks (Tick)
system.cpu.dcache.demandMissLatency::total   3700594971                       # number of demand (read+write) miss ticks (Tick)
system.cpu.dcache.overallMissLatency::cpu.data   3700594971                       # number of overall miss ticks (Tick)
system.cpu.dcache.overallMissLatency::total   3700594971                       # number of overall miss ticks (Tick)
system.cpu.dcache.demandAccesses::cpu.data      3432966                       # number of demand (read+write) accesses (Count)
system.cpu.dcache.demandAccesses::total       3432966                       # number of demand (read+write) accesses (Count)
system.cpu.dcache.overallAccesses::cpu.data      3432966                       # number of overall (read+write) accesses (Count)
system.cpu.dcache.overallAccesses::total      3432966                       # number of overall (read+write) accesses (Count)
system.cpu.dcache.demandMissRate::cpu.data     0.017208                       # miss rate for demand accesses (Ratio)
system.cpu.dcache.demandMissRate::total      0.017208                       # miss rate for demand accesses (Ratio)
system.cpu.dcache.overallMissRate::cpu.data     0.017208                       # miss rate for overall accesses (Ratio)
system.cpu.dcache.overallMissRate::total     0.017208                       # miss rate for overall accesses (Ratio)
system.cpu.dcache.demandAvgMissLatency::cpu.data 62642.318595                       # average overall miss latency in ticks ((Tick/Count))
system.cpu.dcache.demandAvgMissLatency::total 62642.318595                       # average overall miss latency in ticks ((Tick/Count))
system.cpu.dcache.overallAvgMissLatency::cpu.data 62642.318595                       # average overall miss latency ((Tick/Count))
system.cpu.dcache.overallAvgMissLatency::total 62642.318595                       # average overall miss latency ((Tick/Count))
system.cpu.dcache.blockedCycles::no_mshrs        23720                       # number of cycles access was blocked (Cycle)
system.cpu.dcache.blockedCycles::no_targets          558                       # number of cycles access was blocked (Cycle)
system.cpu.dcache.blockedCauses::no_mshrs          543                       # number of times access was blocked (Count)
system.cpu.dcache.blockedCauses::no_targets            8                       # number of times access was blocked (Count)
system.cpu.dcache.avgBlocked::no_mshrs      43.683241                       # average number of cycles each access was blocked ((Cycle/Count))
system.cpu.dcache.avgBlocked::no_targets    69.750000                       # average number of cycles each access was blocked ((Cycle/Count))
system.cpu.dcache.writebacks::writebacks         3099                       # number of writebacks (Count)
system.cpu.dcache.writebacks::total              3099                       # number of writebacks (Count)
system.cpu.dcache.demandMshrHits::cpu.data        38028                       # number of demand (read+write) MSHR hits (Count)
system.cpu.dcache.demandMshrHits::total         38028                       # number of demand (read+write) MSHR hits (Count)
system.cpu.dcache.overallMshrHits::cpu.data        38028                       # number of overall MSHR hits (Count)
system.cpu.dcache.overallMshrHits::total        38028                       # number of overall MSHR hits (Count)
system.cpu.dcache.demandMshrMisses::cpu.data        21047                       # number of demand (read+write) MSHR misses (Count)
system.cpu.dcache.demandMshrMisses::total        21047                       # number of demand (read+write) MSHR misses (Count)
system.cpu.dcache.overallMshrMisses::cpu.data        21047                       # number of overall MSHR misses (Count)
system.cpu.dcache.overallMshrMisses::total        21047                       # number of overall MSHR misses (Count)
system.cpu.dcache.demandMshrMissLatency::cpu.data   1443975471                       # number of demand (read+write) MSHR miss ticks (Tick)
system.cpu.dcache.demandMshrMissLatency::total   1443975471                       # number of demand (read+write) MSHR miss ticks (Tick)
system.cpu.dcache.overallMshrMissLatency::cpu.data   1443975471                       # number of overall MSHR miss ticks (Tick)
system.cpu.dcache.overallMshrMissLatency::total   1443975471                       # number of overall MSHR miss ticks (Tick)
system.cpu.dcache.demandMshrMissRate::cpu.data     0.006131                       # mshr miss ratio for demand accesses (Ratio)
system.cpu.dcache.demandMshrMissRate::total     0.006131                       # mshr miss ratio for demand accesses (Ratio)
system.cpu.dcache.overallMshrMissRate::cpu.data     0.006131                       # mshr miss ratio for overall accesses (Ratio)
system.cpu.dcache.overallMshrMissRate::total     0.006131                       # mshr miss ratio for overall accesses (Ratio)
system.cpu.dcache.demandAvgMshrMissLatency::cpu.data 68607.187295                       # average overall mshr miss latency ((Tick/Count))
system.cpu.dcache.demandAvgMshrMissLatency::total 68607.187295                       # average overall mshr miss latency ((Tick/Count))
system.cpu.dcache.overallAvgMshrMissLatency::cpu.data 68607.187295                       # average overall mshr miss latency ((Tick/Count))
system.cpu.dcache.overallAvgMshrMissLatency::total 68607.187295                       # average overall mshr miss latency ((Tick/Count))
system.cpu.dcache.replacements                  20018                       # number of replacements (Count)
system.cpu.dcache.ReadReq.hits::cpu.data      2311225                       # number of ReadReq hits (Count)
system.cpu.dcache.ReadReq.hits::total         2311225                       # number of ReadReq hits (Count)
system.cpu.dcache.ReadReq.misses::cpu.data        55565                       # number of ReadReq misses (Count)
system.cpu.dcache.ReadReq.misses::total         55565                       # number of ReadReq misses (Count)
system.cpu.dcache.ReadReq.missLatency::cpu.data   3475670000                       # number of ReadReq miss ticks (Tick)
system.cpu.dcache.ReadReq.missLatency::total   3475670000                       # number of ReadReq miss ticks (Tick)
system.cpu.dcache.ReadReq.accesses::cpu.data      2366790                       # number of ReadReq accesses(hits+misses) (Count)
system.cpu.dcache.ReadReq.accesses::total      2366790                       # number of ReadReq accesses(hits+misses) (Count)
system.cpu.dcache.ReadReq.missRate::cpu.data     0.023477                       # miss rate for ReadReq accesses (Ratio)
system.cpu.dcache.ReadReq.missRate::total     0.023477                       # miss rate for ReadReq accesses (Ratio)
system.cpu.dcache.ReadReq.avgMissLatency::cpu.data 62551.426258                       # average ReadReq miss latency ((Tick/Count))
system.cpu.dcache.ReadReq.avgMissLatency::total 62551.426258                       # average ReadReq miss latency ((Tick/Count))
system.cpu.dcache.ReadReq.mshrHits::cpu.data        37999                       # number of ReadReq MSHR hits (Count)
system.cpu.dcache.ReadReq.mshrHits::total        37999                       # number of ReadReq MSHR hits (Count)
system.cpu.dcache.ReadReq.mshrMisses::cpu.data        17566                       # number of ReadReq MSHR misses (Count)
system.cpu.dcache.ReadReq.mshrMisses::total        17566                       # number of ReadReq MSHR misses (Count)
system.cpu.dcache.ReadReq.mshrMissLatency::cpu.data   1223816000                       # number of ReadReq MSHR miss ticks (Tick)
system.cpu.dcache.ReadReq.mshrMissLatency::total   1223816000                       # number of ReadReq MSHR miss ticks (Tick)
system.cpu.dcache.ReadReq.mshrMissRate::cpu.data     0.007422                       # mshr miss rate for ReadReq accesses (Ratio)
system.cpu.dcache.ReadReq.mshrMissRate::total     0.007422                       # mshr miss rate for ReadReq accesses (Ratio)
system.cpu.dcache.ReadReq.avgMshrMissLatency::cpu.data 69669.588979                       # average ReadReq mshr miss latency ((Tick/Count))
system.cpu.dcache.ReadReq.avgMshrMissLatency::total 69669.588979                       # average ReadReq mshr miss latency ((Tick/Count))
system.cpu.dcache.WriteReq.hits::cpu.data      1062666                       # number of WriteReq hits (Count)
system.cpu.dcache.WriteReq.hits::total        1062666                       # number of WriteReq hits (Count)
system.cpu.dcache.WriteReq.misses::cpu.data         3510                       # number of WriteReq misses (Count)
system.cpu.dcache.WriteReq.misses::total         3510                       # number of WriteReq misses (Count)
system.cpu.dcache.WriteReq.missLatency::cpu.data    224924971                       # number of WriteReq miss ticks (Tick)
system.cpu.dcache.WriteReq.missLatency::total    224924971                       # number of WriteReq miss ticks (Tick)
system.cpu.dcache.WriteReq.accesses::cpu.data      1066176                       # number of WriteReq accesses(hits+misses) (Count)
system.cpu.dcache.WriteReq.accesses::total      1066176                       # number of WriteReq accesses(hits+misses) (Count)
system.cpu.dcache.WriteReq.missRate::cpu.data     0.003292                       # miss rate for WriteReq accesses (Ratio)
system.cpu.dcache.WriteReq.missRate::total     0.003292                       # miss rate for WriteReq accesses (Ratio)
system.cpu.dcache.WriteReq.avgMissLatency::cpu.data 64081.188319                       # average WriteReq miss latency ((Tick/Count))
system.cpu.dcache.WriteReq.avgMissLatency::total 64081.188319                       # average WriteReq miss latency ((Tick/Count))
system.cpu.dcache.WriteReq.mshrHits::cpu.data           29                       # number of WriteReq MSHR hits (Count)
system.cpu.dcache.WriteReq.mshrHits::total           29                       # number of WriteReq MSHR hits (Count)
system.cpu.dcache.WriteReq.mshrMisses::cpu.data         3481                       # number of WriteReq MSHR misses (Count)
system.cpu.dcache.WriteReq.mshrMisses::total         3481                       # number of WriteReq MSHR misses (Count)
system.cpu.dcache.WriteReq.mshrMissLatency::cpu.data    220159471                       # number of WriteReq MSHR miss ticks (Tick)
system.cpu.dcache.WriteReq.mshrMissLatency::total    220159471                       # number of WriteReq MSHR miss ticks (Tick)
system.cpu.dcache.WriteReq.mshrMissRate::cpu.data     0.003265                       # mshr miss rate for WriteReq accesses (Ratio)
system.cpu.dcache.WriteReq.mshrMissRate::total     0.003265                       # mshr miss rate for WriteReq accesses (Ratio)
system.cpu.dcache.WriteReq.avgMshrMissLatency::cpu.data 63246.041655                       # average WriteReq mshr miss latency ((Tick/Count))
system.cpu.dcache.WriteReq.avgMshrMissLatency::total 63246.041655                       # average WriteReq mshr miss latency ((Tick/Count))
system.cpu.dcache.power_state.pwrStateResidencyTicks::UNDEFINED   5334863000                       # Cumulative time (in ticks) in various power states (Tick)
system.cpu.dcache.tags.tagsInUse          1013.029844                       # Average ticks per tags in use ((Tick/Count))
system.cpu.dcache.tags.totalRefs              3394938                       # Total number of references to valid blocks. (Count)
system.cpu.dcache.tags.sampledRefs              21042                       # Sample count of references to valid blocks. (Count)
system.cpu.dcache.tags.avgRefs             161.341032                       # Average number of references to valid blocks. ((Count/Count))
system.cpu.dcache.tags.warmupTick              148000                       # The tick when the warmup percentage was hit. (Tick)
system.cpu.dcache.tags.occupancies::cpu.data  1013.029844                       # Average occupied blocks per tick, per requestor ((Count/Tick))
system.cpu.dcache.tags.avgOccs::cpu.data     0.989287                       # Average percentage of cache occupancy ((Ratio/Tick))
system.cpu.dcache.tags.avgOccs::total        0.989287                       # Average percentage of cache occupancy ((Ratio/Tick))
system.cpu.dcache.tags.occupanciesTaskId::1024         1024                       # Occupied blocks per task id (Count)
system.cpu.dcache.tags.ageTaskId_1024::0            6                       # Occupied blocks per task id, per block age (Count)
system.cpu.dcache.tags.ageTaskId_1024::1           41                       # Occupied blocks per task id, per block age (Count)
system.cpu.dcache.tags.ageTaskId_1024::2          336                       # Occupied blocks per task id, per block age (Count)
system.cpu.dcache.tags.ageTaskId_1024::3          641                       # Occupied blocks per task id, per block age (Count)
system.cpu.dcache.tags.ratioOccsTaskId::1024            1                       # Ratio of occupied blocks and all blocks, per task id (Ratio)
system.cpu.dcache.tags.tagAccesses            6886974                       # Number of tag accesses (Count)
system.cpu.dcache.tags.dataAccesses           6886974                       # Number of data accesses (Count)
system.cpu.dcache.tags.power_state.pwrStateResidencyTicks::UNDEFINED   5334863000                       # Cumulative time (in ticks) in various power states (Tick)
system.cpu.decode.idleCycles                  2861831                       # Number of cycles decode is idle (Cycle)
system.cpu.decode.blockedCycles               2782566                       # Number of cycles decode is blocked (Cycle)
system.cpu.decode.runCycles                   3764502                       # Number of cycles decode is running (Cycle)
system.cpu.decode.unblockCycles                401861                       # Number of cycles decode is unblocking (Cycle)
system.cpu.decode.squashCycles                 167886                       # Number of cycles decode is squashing (Cycle)
system.cpu.decode.branchResolved              1431599                       # Number of times decode resolved a branch (Count)
system.cpu.decode.branchMispred                  1219                       # Number of times decode detected a branch misprediction (Count)
system.cpu.decode.decodedInsts               26288575                       # Number of instructions handled by decode (Count)
system.cpu.decode.squashedInsts                  5309                       # Number of squashed instructions handled by decode (Count)
system.cpu.dtb_walker_cache.blockedCycles::no_mshrs            0                       # number of cycles access was blocked (Cycle)
system.cpu.dtb_walker_cache.blockedCycles::no_targets            0                       # number of cycles access was blocked (Cycle)
system.cpu.dtb_walker_cache.blockedCauses::no_mshrs            0                       # number of times access was blocked (Count)
system.cpu.dtb_walker_cache.blockedCauses::no_targets            0                       # number of times access was blocked (Count)
system.cpu.dtb_walker_cache.avgBlocked::no_mshrs          nan                       # average number of cycles each access was blocked ((Cycle/Count))
system.cpu.dtb_walker_cache.avgBlocked::no_targets          nan                       # average number of cycles each access was blocked ((Cycle/Count))
system.cpu.dtb_walker_cache.replacements            0                       # number of replacements (Count)
system.cpu.dtb_walker_cache.power_state.pwrStateResidencyTicks::UNDEFINED   5334863000                       # Cumulative time (in ticks) in various power states (Tick)
system.cpu.dtb_walker_cache.tags.tagsInUse            0                       # Average ticks per tags in use ((Tick/Count))
system.cpu.dtb_walker_cache.tags.totalRefs            0                       # Total number of references to valid blocks. (Count)
system.cpu.dtb_walker_cache.tags.sampledRefs            0                       # Sample count of references to valid blocks. (Count)
system.cpu.dtb_walker_cache.tags.avgRefs          nan                       # Average number of references to valid blocks. ((Count/Count))
system.cpu.dtb_walker_cache.tags.warmupTick            0                       # The tick when the warmup percentage was hit. (Tick)
system.cpu.dtb_walker_cache.tags.tagAccesses            0                       # Number of tag accesses (Count)
system.cpu.dtb_walker_cache.tags.dataAccesses            0                       # Number of data accesses (Count)
system.cpu.dtb_walker_cache.tags.power_state.pwrStateResidencyTicks::UNDEFINED   5334863000                       # Cumulative time (in ticks) in various power states (Tick)
system.cpu.fetch.icacheStallCycles            3099544                       # Number of cycles fetch is stalled on an Icache miss (Cycle)
system.cpu.fetch.insts                       14679911                       # Number of instructions fetch has processed (Count)
system.cpu.fetch.branches                     3117567                       # Number of branches that fetch encountered (Count)
system.cpu.fetch.predictedBranches            1663052                       # Number of branches that fetch has predicted taken (Count)
system.cpu.fetch.cycles                       6705871                       # Number of cycles fetch has run and was not squashing or blocked (Cycle)
system.cpu.fetch.squashCycles                  338100                       # Number of cycles fetch has spent squashing (Cycle)
system.cpu.fetch.miscStallCycles                  478                       # Number of cycles fetch has spent waiting on interrupts, or bad addresses, or out of MSHRs (Cycle)
system.cpu.fetch.pendingTrapStallCycles          3703                       # Number of stall cycles due to pending traps (Cycle)
system.cpu.fetch.cacheLines                   2173747                       # Number of cache lines fetched (Count)
system.cpu.fetch.icacheSquashes                 50070                       # Number of outstanding Icache misses that were squashed (Count)
system.cpu.fetch.nisnDist::samples            9978646                       # Number of instructions fetched each cycle (Total) (Count)
system.cpu.fetch.nisnDist::mean              2.753700                       # Number of instructions fetched each cycle (Total) (Count)
system.cpu.fetch.nisnDist::stdev             3.393262                       # Number of instructions fetched each cycle (Total) (Count)
system.cpu.fetch.nisnDist::underflows               0      0.00%      0.00% # Number of instructions fetched each cycle (Total) (Count)
system.cpu.fetch.nisnDist::0                  5352223     53.64%     53.64% # Number of instructions fetched each cycle (Total) (Count)
system.cpu.fetch.nisnDist::1                   280837      2.81%     56.45% # Number of instructions fetched each cycle (Total) (Count)
system.cpu.fetch.nisnDist::2                   320168      3.21%     59.66% # Number of instructions fetched each cycle (Total) (Count)
system.cpu.fetch.nisnDist::3                   361051      3.62%     63.28% # Number of instructions fetched each cycle (Total) (Count)
system.cpu.fetch.nisnDist::4                   519388      5.20%     68.48% # Number of instructions fetched each cycle (Total) (Count)
system.cpu.fetch.nisnDist::5                   356970      3.58%     72.06% # Number of instructions fetched each cycle (Total) (Count)
system.cpu.fetch.nisnDist::6                   237076      2.38%     74.44% # Number of instructions fetched each cycle (Total) (Count)
system.cpu.fetch.nisnDist::7                   218450      2.19%     76.63% # Number of instructions fetched each cycle (Total) (Count)
system.cpu.fetch.nisnDist::8                  2332483     23.37%    100.00% # Number of instructions fetched each cycle (Total) (Count)
system.cpu.fetch.nisnDist::overflows                0      0.00%    100.00% # Number of instructions fetched each cycle (Total) (Count)
system.cpu.fetch.nisnDist::min_value                0                       # Number of instructions fetched each cycle (Total) (Count)
system.cpu.fetch.nisnDist::max_value                8                       # Number of instructions fetched each cycle (Total) (Count)
system.cpu.fetch.nisnDist::total              9978646                       # Number of instructions fetched each cycle (Total) (Count)
system.cpu.fetch.branchRate                  0.292188                       # Number of branch fetches per cycle (Ratio)
system.cpu.fetch.rate                        1.375847                       # Number of inst fetches per cycle ((Count/Cycle))
system.cpu.icache.demandHits::cpu.inst        2132044                       # number of demand (read+write) hits (Count)
system.cpu.icache.demandHits::total           2132044                       # number of demand (read+write) hits (Count)
system.cpu.icache.overallHits::cpu.inst       2132044                       # number of overall hits (Count)
system.cpu.icache.overallHits::total          2132044                       # number of overall hits (Count)
system.cpu.icache.demandMisses::cpu.inst        41703                       # number of demand (read+write) misses (Count)
system.cpu.icache.demandMisses::total           41703                       # number of demand (read+write) misses (Count)
system.cpu.icache.overallMisses::cpu.inst        41703                       # number of overall misses (Count)
system.cpu.icache.overallMisses::total          41703                       # number of overall misses (Count)
system.cpu.icache.demandMissLatency::cpu.inst   1042842000                       # number of demand (read+write) miss ticks (Tick)
system.cpu.icache.demandMissLatency::total   1042842000                       # number of demand (read+write) miss ticks (Tick)
system.cpu.icache.overallMissLatency::cpu.inst   1042842000                       # number of overall miss ticks (Tick)
system.cpu.icache.overallMissLatency::total   1042842000                       # number of overall miss ticks (Tick)
system.cpu.icache.demandAccesses::cpu.inst      2173747                       # number of demand (read+write) accesses (Count)
system.cpu.icache.demandAccesses::total       2173747                       # number of demand (read+write) accesses (Count)
system.cpu.icache.overallAccesses::cpu.inst      2173747                       # number of overall (read+write) accesses (Count)
system.cpu.icache.overallAccesses::total      2173747                       # number of overall (read+write) accesses (Count)
system.cpu.icache.demandMissRate::cpu.inst     0.019185                       # miss rate for demand accesses (Ratio)
system.cpu.icache.demandMissRate::total      0.019185                       # miss rate for demand accesses (Ratio)
system.cpu.icache.overallMissRate::cpu.inst     0.019185                       # miss rate for overall accesses (Ratio)
system.cpu.icache.overallMissRate::total     0.019185                       # miss rate for overall accesses (Ratio)
system.cpu.icache.demandAvgMissLatency::cpu.inst 25006.402417                       # average overall miss latency in ticks ((Tick/Count))
system.cpu.icache.demandAvgMissLatency::total 25006.402417                       # average overall miss latency in ticks ((Tick/Count))
system.cpu.icache.overallAvgMissLatency::cpu.inst 25006.402417                       # average overall miss latency ((Tick/Count))
system.cpu.icache.overallAvgMissLatency::total 25006.402417                       # average overall miss latency ((Tick/Count))
system.cpu.icache.blockedCycles::no_mshrs            0                       # number of cycles access was blocked (Cycle)
system.cpu.icache.blockedCycles::no_targets            0                       # number of cycles access was blocked (Cycle)
system.cpu.icache.blockedCauses::no_mshrs            0                       # number of times access was blocked (Count)
system.cpu.icache.blockedCauses::no_targets            0                       # number of times access was blocked (Count)
system.cpu.icache.avgBlocked::no_mshrs            nan                       # average number of cycles each access was blocked ((Cycle/Count))
system.cpu.icache.avgBlocked::no_targets          nan                       # average number of cycles each access was blocked ((Cycle/Count))
system.cpu.icache.writebacks::writebacks        35296                       # number of writebacks (Count)
system.cpu.icache.writebacks::total             35296                       # number of writebacks (Count)
system.cpu.icache.demandMshrHits::cpu.inst         5897                       # number of demand (read+write) MSHR hits (Count)
system.cpu.icache.demandMshrHits::total          5897                       # number of demand (read+write) MSHR hits (Count)
system.cpu.icache.overallMshrHits::cpu.inst         5897                       # number of overall MSHR hits (Count)
system.cpu.icache.overallMshrHits::total         5897                       # number of overall MSHR hits (Count)
system.cpu.icache.demandMshrMisses::cpu.inst        35806                       # number of demand (read+write) MSHR misses (Count)
system.cpu.icache.demandMshrMisses::total        35806                       # number of demand (read+write) MSHR misses (Count)
system.cpu.icache.overallMshrMisses::cpu.inst        35806                       # number of overall MSHR misses (Count)
system.cpu.icache.overallMshrMisses::total        35806                       # number of overall MSHR misses (Count)
system.cpu.icache.demandMshrMissLatency::cpu.inst    886828500                       # number of demand (read+write) MSHR miss ticks (Tick)
system.cpu.icache.demandMshrMissLatency::total    886828500                       # number of demand (read+write) MSHR miss ticks (Tick)
system.cpu.icache.overallMshrMissLatency::cpu.inst    886828500                       # number of overall MSHR miss ticks (Tick)
system.cpu.icache.overallMshrMissLatency::total    886828500                       # number of overall MSHR miss ticks (Tick)
system.cpu.icache.demandMshrMissRate::cpu.inst     0.016472                       # mshr miss ratio for demand accesses (Ratio)
system.cpu.icache.demandMshrMissRate::total     0.016472                       # mshr miss ratio for demand accesses (Ratio)
system.cpu.icache.overallMshrMissRate::cpu.inst     0.016472                       # mshr miss ratio for overall accesses (Ratio)
system.cpu.icache.overallMshrMissRate::total     0.016472                       # mshr miss ratio for overall accesses (Ratio)
system.cpu.icache.demandAvgMshrMissLatency::cpu.inst 24767.594817                       # average overall mshr miss latency ((Tick/Count))
system.cpu.icache.demandAvgMshrMissLatency::total 24767.594817                       # average overall mshr miss latency ((Tick/Count))
system.cpu.icache.overallAvgMshrMissLatency::cpu.inst 24767.594817                       # average overall mshr miss latency ((Tick/Count))
system.cpu.icache.overallAvgMshrMissLatency::total 24767.594817                       # average overall mshr miss latency ((Tick/Count))
system.cpu.icache.replacements                  35296                       # number of replacements (Count)
system.cpu.icache.ReadReq.hits::cpu.inst      2132044                       # number of ReadReq hits (Count)
system.cpu.icache.ReadReq.hits::total         2132044                       # number of ReadReq hits (Count)
system.cpu.icache.ReadReq.misses::cpu.inst        41703                       # number of ReadReq misses (Count)
system.cpu.icache.ReadReq.misses::total         41703                       # number of ReadReq misses (Count)
system.cpu.icache.ReadReq.missLatency::cpu.inst   1042842000                       # number of ReadReq miss ticks (Tick)
system.cpu.icache.ReadReq.missLatency::total   1042842000                       # number of ReadReq miss ticks (Tick)
system.cpu.icache.ReadReq.accesses::cpu.inst      2173747                       # number of ReadReq accesses(hits+misses) (Count)
system.cpu.icache.ReadReq.accesses::total      2173747                       # number of ReadReq accesses(hits+misses) (Count)
system.cpu.icache.ReadReq.missRate::cpu.inst     0.019185                       # miss rate for ReadReq accesses (Ratio)
system.cpu.icache.ReadReq.missRate::total     0.019185                       # miss rate for ReadReq accesses (Ratio)
system.cpu.icache.ReadReq.avgMissLatency::cpu.inst 25006.402417                       # average ReadReq miss latency ((Tick/Count))
system.cpu.icache.ReadReq.avgMissLatency::total 25006.402417                       # average ReadReq miss latency ((Tick/Count))
system.cpu.icache.ReadReq.mshrHits::cpu.inst         5897                       # number of ReadReq MSHR hits (Count)
system.cpu.icache.ReadReq.mshrHits::total         5897                       # number of ReadReq MSHR hits (Count)
system.cpu.icache.ReadReq.mshrMisses::cpu.inst        35806                       # number of ReadReq MSHR misses (Count)
system.cpu.icache.ReadReq.mshrMisses::total        35806                       # number of ReadReq MSHR misses (Count)
system.cpu.icache.ReadReq.mshrMissLatency::cpu.inst    886828500                       # number of ReadReq MSHR miss ticks (Tick)
system.cpu.icache.ReadReq.mshrMissLatency::total    886828500                       # number of ReadReq MSHR miss ticks (Tick)
system.cpu.icache.ReadReq.mshrMissRate::cpu.inst     0.016472                       # mshr miss rate for ReadReq accesses (Ratio)
system.cpu.icache.ReadReq.mshrMissRate::total     0.016472                       # mshr miss rate for ReadReq accesses (Ratio)
system.cpu.icache.ReadReq.avgMshrMissLatency::cpu.inst 24767.594817                       # average ReadReq mshr miss latency ((Tick/Count))
system.cpu.icache.ReadReq.avgMshrMissLatency::total 24767.594817                       # average ReadReq mshr miss latency ((Tick/Count))
system.cpu.icache.power_state.pwrStateResidencyTicks::UNDEFINED   5334863000                       # Cumulative time (in ticks) in various power states (Tick)
system.cpu.icache.tags.tagsInUse           487.523340                       # Average ticks per tags in use ((Tick/Count))
system.cpu.icache.tags.totalRefs              2167849                       # Total number of references to valid blocks. (Count)
system.cpu.icache.tags.sampledRefs              35805                       # Sample count of references to valid blocks. (Count)
system.cpu.icache.tags.avgRefs              60.545985                       # Average number of references to valid blocks. ((Count/Count))
system.cpu.icache.tags.warmupTick               77000                       # The tick when the warmup percentage was hit. (Tick)
system.cpu.icache.tags.occupancies::cpu.inst   487.523340                       # Average occupied blocks per tick, per requestor ((Count/Tick))
system.cpu.icache.tags.avgOccs::cpu.inst     0.952194                       # Average percentage of cache occupancy ((Ratio/Tick))
system.cpu.icache.tags.avgOccs::total        0.952194                       # Average percentage of cache occupancy ((Ratio/Tick))
system.cpu.icache.tags.occupanciesTaskId::1024          504                       # Occupied blocks per task id (Count)
system.cpu.icache.tags.ageTaskId_1024::0            4                       # Occupied blocks per task id, per block age (Count)
system.cpu.icache.tags.ageTaskId_1024::2            9                       # Occupied blocks per task id, per block age (Count)
system.cpu.icache.tags.ageTaskId_1024::3          491                       # Occupied blocks per task id, per block age (Count)
system.cpu.icache.tags.ratioOccsTaskId::1024     0.984375                       # Ratio of occupied blocks and all blocks, per task id (Ratio)
system.cpu.icache.tags.tagAccesses            4383299                       # Number of tag accesses (Count)
system.cpu.icache.tags.dataAccesses           4383299                       # Number of data accesses (Count)
system.cpu.icache.tags.power_state.pwrStateResidencyTicks::UNDEFINED   5334863000                       # Cumulative time (in ticks) in various power states (Tick)
system.cpu.iew.idleCycles                           0                       # Number of cycles IEW is idle (Cycle)
system.cpu.iew.squashCycles                    167886                       # Number of cycles IEW is squashing (Cycle)
system.cpu.iew.blockCycles                    1521238                       # Number of cycles IEW is blocking (Cycle)
system.cpu.iew.unblockCycles                    75876                       # Number of cycles IEW is unblocking (Cycle)
system.cpu.iew.dispatchedInsts               24344224                       # Number of instructions dispatched to IQ (Count)
system.cpu.iew.dispSquashedInsts                 7245                       # Number of squashed instructions skipped by dispatch (Count)
system.cpu.iew.dispLoadInsts                  2945336                       # Number of dispatched load instructions (Count)
system.cpu.iew.dispStoreInsts                 1391420                       # Number of dispatched store instructions (Count)
system.cpu.iew.dispNonSpecInsts                   242                       # Number of dispatched non-speculative instructions (Count)
system.cpu.iew.iqFullEvents                      6064                       # Number of times the IQ has become full, causing a stall (Count)
system.cpu.iew.lsqFullEvents                    63302                       # Number of times the LSQ has become full, causing a stall (Count)
system.cpu.iew.memOrderViolationEvents            561                       # Number of memory order violations (Count)
system.cpu.iew.predictedTakenIncorrect          27893                       # Number of branches that were predicted taken incorrectly (Count)
system.cpu.iew.predictedNotTakenIncorrect        37156                       # Number of branches that were predicted not taken incorrectly (Count)
system.cpu.iew.branchMispredicts                65049                       # Number of branch mispredicts detected at execute (Count)
system.cpu.iew.mispredictedLVP                 131087                       # mispredictedLVP (Count)
system.cpu.iew.LvpCorrect                     1203234                       # LvpCorrect (Count)
system.cpu.iew.instsToCommit                 21841215                       # Cumulative count of insts sent to commit (Count)
system.cpu.iew.writebackCount                21764648                       # Cumulative count of insts written-back (Count)
system.cpu.iew.producerInst                  16374112                       # Number of instructions producing a value (Count)
system.cpu.iew.consumerInst                  28018008                       # Number of instructions consuming a value (Count)
system.cpu.iew.wbRate                        2.039851                       # Insts written-back per cycle ((Count/Cycle))
system.cpu.iew.wbFanout                      0.584414                       # Average fanout of values written-back ((Count/Count))
system.cpu.interrupts.clk_domain.clock           8000                       # Clock period in ticks (Tick)
system.cpu.itb_walker_cache.blockedCycles::no_mshrs            0                       # number of cycles access was blocked (Cycle)
system.cpu.itb_walker_cache.blockedCycles::no_targets            0                       # number of cycles access was blocked (Cycle)
system.cpu.itb_walker_cache.blockedCauses::no_mshrs            0                       # number of times access was blocked (Count)
system.cpu.itb_walker_cache.blockedCauses::no_targets            0                       # number of times access was blocked (Count)
system.cpu.itb_walker_cache.avgBlocked::no_mshrs          nan                       # average number of cycles each access was blocked ((Cycle/Count))
system.cpu.itb_walker_cache.avgBlocked::no_targets          nan                       # average number of cycles each access was blocked ((Cycle/Count))
system.cpu.itb_walker_cache.replacements            0                       # number of replacements (Count)
system.cpu.itb_walker_cache.power_state.pwrStateResidencyTicks::UNDEFINED   5334863000                       # Cumulative time (in ticks) in various power states (Tick)
system.cpu.itb_walker_cache.tags.tagsInUse            0                       # Average ticks per tags in use ((Tick/Count))
system.cpu.itb_walker_cache.tags.totalRefs            0                       # Total number of references to valid blocks. (Count)
system.cpu.itb_walker_cache.tags.sampledRefs            0                       # Sample count of references to valid blocks. (Count)
system.cpu.itb_walker_cache.tags.avgRefs          nan                       # Average number of references to valid blocks. ((Count/Count))
system.cpu.itb_walker_cache.tags.warmupTick            0                       # The tick when the warmup percentage was hit. (Tick)
system.cpu.itb_walker_cache.tags.tagAccesses            0                       # Number of tag accesses (Count)
system.cpu.itb_walker_cache.tags.dataAccesses            0                       # Number of data accesses (Count)
system.cpu.itb_walker_cache.tags.power_state.pwrStateResidencyTicks::UNDEFINED   5334863000                       # Cumulative time (in ticks) in various power states (Tick)
system.cpu.lsq0.forwLoads                      282179                       # Number of loads that had data forwarded from stores (Count)
system.cpu.lsq0.squashedLoads                  762672                       # Number of loads squashed (Count)
system.cpu.lsq0.ignoredResponses                 1125                       # Number of memory responses ignored because the instruction is squashed (Count)
system.cpu.lsq0.memOrderViolation                 561                       # Number of memory ordering violations (Count)
system.cpu.lsq0.squashedStores                 325251                       # Number of stores squashed (Count)
system.cpu.lsq0.rescheduledLoads                 1441                       # Number of loads that were rescheduled (Count)
system.cpu.lsq0.blockedByCache                    518                       # Number of times an access to memory failed due to the cache being blocked (Count)
system.cpu.lsq0.loadToUse::samples            2182663                       # Distribution of cycle latency between the first time a load is issued and its completion (Unspecified)
system.cpu.lsq0.loadToUse::mean              5.489407                       # Distribution of cycle latency between the first time a load is issued and its completion (Unspecified)
system.cpu.lsq0.loadToUse::stdev            19.929542                       # Distribution of cycle latency between the first time a load is issued and its completion (Unspecified)
system.cpu.lsq0.loadToUse::0-9                2141166     98.10%     98.10% # Distribution of cycle latency between the first time a load is issued and its completion (Unspecified)
system.cpu.lsq0.loadToUse::10-19                 1269      0.06%     98.16% # Distribution of cycle latency between the first time a load is issued and its completion (Unspecified)
system.cpu.lsq0.loadToUse::20-29                  417      0.02%     98.18% # Distribution of cycle latency between the first time a load is issued and its completion (Unspecified)
system.cpu.lsq0.loadToUse::30-39                  232      0.01%     98.19% # Distribution of cycle latency between the first time a load is issued and its completion (Unspecified)
system.cpu.lsq0.loadToUse::40-49                  289      0.01%     98.20% # Distribution of cycle latency between the first time a load is issued and its completion (Unspecified)
system.cpu.lsq0.loadToUse::50-59                  268      0.01%     98.21% # Distribution of cycle latency between the first time a load is issued and its completion (Unspecified)
system.cpu.lsq0.loadToUse::60-69                  375      0.02%     98.23% # Distribution of cycle latency between the first time a load is issued and its completion (Unspecified)
[...]
system.mem_ctrls.dram.perBankWrBursts::2          324                       # Per bank write bursts (Count)
system.mem_ctrls.dram.perBankWrBursts::3          526                       # Per bank write bursts (Count)
system.mem_ctrls.dram.perBankWrBursts::4          399                       # Per bank write bursts (Count)
system.mem_ctrls.dram.perBankWrBursts::5          154                       # Per bank write bursts (Count)
system.mem_ctrls.dram.perBankWrBursts::6          315                       # Per bank write bursts (Count)
system.mem_ctrls.dram.perBankWrBursts::7          303                       # Per bank write bursts (Count)
system.mem_ctrls.dram.perBankWrBursts::8          267                       # Per bank write bursts (Count)
system.mem_ctrls.dram.perBankWrBursts::9          487                       # Per bank write bursts (Count)
system.mem_ctrls.dram.perBankWrBursts::10          401                       # Per bank write bursts (Count)
system.mem_ctrls.dram.perBankWrBursts::11          275                       # Per bank write bursts (Count)
system.mem_ctrls.dram.perBankWrBursts::12          283                       # Per bank write bursts (Count)
system.mem_ctrls.dram.perBankWrBursts::13          161                       # Per bank write bursts (Count)
system.mem_ctrls.dram.perBankWrBursts::14          255                       # Per bank write bursts (Count)
system.mem_ctrls.dram.perBankWrBursts::15          256                       # Per bank write bursts (Count)
system.mem_ctrls.dram.totQLat               411151250                       # Total ticks spent queuing (Tick)
system.mem_ctrls.dram.totBusLat             114820000                       # Total ticks spent in databus transfers (Tick)
system.mem_ctrls.dram.totMemAccLat          841726250                       # Total ticks spent from burst creation until serviced by the DRAM (Tick)
system.mem_ctrls.dram.avgQLat                17904.17                       # Average queueing delay per DRAM burst ((Tick/Count))
system.mem_ctrls.dram.avgBusLat               5000.00                       # Average bus latency per DRAM burst ((Tick/Count))
system.mem_ctrls.dram.avgMemAccLat           36654.17                       # Average memory access latency per DRAM burst ((Tick/Count))
system.mem_ctrls.dram.readRowHits               10792                       # Number of row buffer hits during reads (Count)
system.mem_ctrls.dram.writeRowHits               3639                       # Number of row buffer hits during writes (Count)
system.mem_ctrls.dram.readRowHitRate            47.00                       # Row buffer hit rate for reads (Ratio)
system.mem_ctrls.dram.writeRowHitRate           73.78                       # Row buffer hit rate for writes (Ratio)
system.mem_ctrls.dram.bytesPerActivate::samples        13465                       # Bytes accessed per row activation (Byte)
system.mem_ctrls.dram.bytesPerActivate::mean   132.591459                       # Bytes accessed per row activation (Byte)
system.mem_ctrls.dram.bytesPerActivate::gmean    97.123711                       # Bytes accessed per row activation (Byte)
system.mem_ctrls.dram.bytesPerActivate::stdev   161.689662                       # Bytes accessed per row activation (Byte)
system.mem_ctrls.dram.bytesPerActivate::0-127         8482     62.99%     62.99% # Bytes accessed per row activation (Byte)
system.mem_ctrls.dram.bytesPerActivate::128-255         3501     26.00%     88.99% # Bytes accessed per row activation (Byte)
system.mem_ctrls.dram.bytesPerActivate::256-383          642      4.77%     93.76% # Bytes accessed per row activation (Byte)
system.mem_ctrls.dram.bytesPerActivate::384-511          282      2.09%     95.86% # Bytes accessed per row activation (Byte)
system.mem_ctrls.dram.bytesPerActivate::512-639          158      1.17%     97.03% # Bytes accessed per row activation (Byte)
system.mem_ctrls.dram.bytesPerActivate::640-767           98      0.73%     97.76% # Bytes accessed per row activation (Byte)
system.mem_ctrls.dram.bytesPerActivate::768-895           48      0.36%     98.11% # Bytes accessed per row activation (Byte)
system.mem_ctrls.dram.bytesPerActivate::896-1023           34      0.25%     98.37% # Bytes accessed per row activation (Byte)
system.mem_ctrls.dram.bytesPerActivate::1024-1151          220      1.63%    100.00% # Bytes accessed per row activation (Byte)
system.mem_ctrls.dram.bytesPerActivate::total        13465                       # Bytes accessed per row activation (Byte)
system.mem_ctrls.dram.bytesRead               1469696                       # Total bytes read (Byte)
system.mem_ctrls.dram.bytesWritten             315648                       # Total bytes written (Byte)
system.mem_ctrls.dram.avgRdBW              275.488986                       # Average DRAM read bandwidth in MiBytes/s ((Byte/Second))
system.mem_ctrls.dram.avgWrBW               59.167030                       # Average DRAM write bandwidth in MiBytes/s ((Byte/Second))
system.mem_ctrls.dram.peakBW                 12800.00                       # Theoretical peak bandwidth in MiByte/s ((Byte/Second))
system.mem_ctrls.dram.busUtil                    2.61                       # Data bus utilization in percentage (Ratio)
system.mem_ctrls.dram.busUtilRead                2.15                       # Data bus utilization in percentage for reads (Ratio)
system.mem_ctrls.dram.busUtilWrite               0.46                       # Data bus utilization in percentage for writes (Ratio)
system.mem_ctrls.dram.pageHitRate               51.73                       # Row buffer hit rate, read and write combined (Ratio)
system.mem_ctrls.dram.power_state.pwrStateResidencyTicks::UNDEFINED   5334863000                       # Cumulative time (in ticks) in various power states (Tick)
system.mem_ctrls.dram.rank0.actEnergy        51065280                       # Energy for activate commands per rank (pJ) (Joule)
system.mem_ctrls.dram.rank0.preEnergy        27141840                       # Energy for precharge commands per rank (pJ) (Joule)
system.mem_ctrls.dram.rank0.readEnergy       86329740                       # Energy for read commands per rank (pJ) (Joule)
system.mem_ctrls.dram.rank0.writeEnergy      13295340                       # Energy for write commands per rank (pJ) (Joule)
system.mem_ctrls.dram.rank0.refreshEnergy 421028400.000000                       # Energy for refresh commands per rank (pJ) (Joule)
system.mem_ctrls.dram.rank0.actBackEnergy   2021854980                       # Energy for active background per rank (pJ) (Joule)
system.mem_ctrls.dram.rank0.preBackEnergy    345972960                       # Energy for precharge background per rank (pJ) (Joule)
system.mem_ctrls.dram.rank0.actPowerDownEnergy            0                       # Energy for active power-down per rank (pJ) (Joule)
system.mem_ctrls.dram.rank0.prePowerDownEnergy            0                       # Energy for precharge power-down per rank (pJ) (Joule)
system.mem_ctrls.dram.rank0.selfRefreshEnergy            0                       # Energy for self refresh per rank (pJ) (Joule)
system.mem_ctrls.dram.rank0.totalEnergy    2966688540                       # Total energy per rank (pJ) (Joule)
system.mem_ctrls.dram.rank0.averagePower   556.094606                       # Core power per rank (mW) (Watt)
system.mem_ctrls.dram.rank0.totalIdleTime            0                       # Total Idle time Per DRAM Rank (Tick)
system.mem_ctrls.dram.rank0.pwrStateTime::IDLE    880747000                       # Time in different power states (Tick)
system.mem_ctrls.dram.rank0.pwrStateTime::REF    178100000                       # Time in different power states (Tick)
system.mem_ctrls.dram.rank0.pwrStateTime::SREF            0                       # Time in different power states (Tick)
system.mem_ctrls.dram.rank0.pwrStateTime::PRE_PDN            0                       # Time in different power states (Tick)
system.mem_ctrls.dram.rank0.pwrStateTime::ACT   4276016000                       # Time in different power states (Tick)
system.mem_ctrls.dram.rank0.pwrStateTime::ACT_PDN            0                       # Time in different power states (Tick)
system.mem_ctrls.dram.rank1.actEnergy        45074820                       # Energy for activate commands per rank (pJ) (Joule)
system.mem_ctrls.dram.rank1.preEnergy        23957835                       # Energy for precharge commands per rank (pJ) (Joule)
system.mem_ctrls.dram.rank1.readEnergy       77633220                       # Energy for read commands per rank (pJ) (Joule)
system.mem_ctrls.dram.rank1.writeEnergy      12449700                       # Energy for write commands per rank (pJ) (Joule)
system.mem_ctrls.dram.rank1.refreshEnergy 421028400.000000                       # Energy for refresh commands per rank (pJ) (Joule)
system.mem_ctrls.dram.rank1.actBackEnergy   1723431480                       # Energy for active background per rank (pJ) (Joule)
system.mem_ctrls.dram.rank1.preBackEnergy    597276960                       # Energy for precharge background per rank (pJ) (Joule)
system.mem_ctrls.dram.rank1.actPowerDownEnergy            0                       # Energy for active power-down per rank (pJ) (Joule)
system.mem_ctrls.dram.rank1.prePowerDownEnergy            0                       # Energy for precharge power-down per rank (pJ) (Joule)
system.mem_ctrls.dram.rank1.selfRefreshEnergy            0                       # Energy for self refresh per rank (pJ) (Joule)
system.mem_ctrls.dram.rank1.totalEnergy    2900852415                       # Total energy per rank (pJ) (Joule)
system.mem_ctrls.dram.rank1.averagePower   543.753872                       # Core power per rank (mW) (Watt)
system.mem_ctrls.dram.rank1.totalIdleTime            0                       # Total Idle time Per DRAM Rank (Tick)
system.mem_ctrls.dram.rank1.pwrStateTime::IDLE   1536676250                       # Time in different power states (Tick)
system.mem_ctrls.dram.rank1.pwrStateTime::REF    178100000                       # Time in different power states (Tick)
system.mem_ctrls.dram.rank1.pwrStateTime::SREF            0                       # Time in different power states (Tick)
system.mem_ctrls.dram.rank1.pwrStateTime::PRE_PDN            0                       # Time in different power states (Tick)
system.mem_ctrls.dram.rank1.pwrStateTime::ACT   3620086750                       # Time in different power states (Tick)
system.mem_ctrls.dram.rank1.pwrStateTime::ACT_PDN            0                       # Time in different power states (Tick)
system.mem_ctrls.power_state.pwrStateResidencyTicks::UNDEFINED   5334863000                       # Cumulative time (in ticks) in various power states (Tick)
system.membus.transDist::ReadResp               53371                       # Transaction distribution (Count)
system.membus.transDist::WritebackDirty          3099                       # Transaction distribution (Count)
system.membus.transDist::WritebackClean         35296                       # Transaction distribution (Count)
system.membus.transDist::CleanEvict             16919                       # Transaction distribution (Count)
system.membus.transDist::UpgradeReq                 5                       # Transaction distribution (Count)
system.membus.transDist::ReadExReq               3476                       # Transaction distribution (Count)
system.membus.transDist::ReadExResp              3476                       # Transaction distribution (Count)
system.membus.transDist::ReadCleanReq           35806                       # Transaction distribution (Count)
system.membus.transDist::ReadSharedReq          17566                       # Transaction distribution (Count)
system.membus.pktCount_system.cpu.icache.mem_side_port::system.mem_ctrls.port       106902                       # Packet count per connected requestor and responder (Count)
system.membus.pktCount_system.cpu.icache.mem_side_port::total       106902                       # Packet count per connected requestor and responder (Count)
system.membus.pktCount_system.cpu.dcache.mem_side_port::system.mem_ctrls.port        62107                       # Packet count per connected requestor and responder (Count)
system.membus.pktCount_system.cpu.dcache.mem_side_port::total        62107                       # Packet count per connected requestor and responder (Count)
system.membus.pktCount::total                  169009                       # Packet count per connected requestor and responder (Count)
system.membus.pktSize_system.cpu.icache.mem_side_port::system.mem_ctrls.port      4550144                       # Cumulative packet size per connected requestor and responder (Byte)
system.membus.pktSize_system.cpu.icache.mem_side_port::total      4550144                       # Cumulative packet size per connected requestor and responder (Byte)
system.membus.pktSize_system.cpu.dcache.mem_side_port::system.mem_ctrls.port      1545024                       # Cumulative packet size per connected requestor and responder (Byte)
system.membus.pktSize_system.cpu.dcache.mem_side_port::total      1545024                       # Cumulative packet size per connected requestor and responder (Byte)
system.membus.pktSize::total                  6095168                       # Cumulative packet size per connected requestor and responder (Byte)
system.membus.snoops                                5                       # Total snoops (Count)
system.membus.snoopTraffic                        320                       # Total snoop traffic (Byte)
system.membus.snoopFanout::samples              56853                       # Request fanout histogram (Count)
system.membus.snoopFanout::mean              0.000264                       # Request fanout histogram (Count)
system.membus.snoopFanout::stdev             0.016241                       # Request fanout histogram (Count)
system.membus.snoopFanout::underflows               0      0.00%      0.00% # Request fanout histogram (Count)
system.membus.snoopFanout::0                    56838     99.97%     99.97% # Request fanout histogram (Count)
system.membus.snoopFanout::1                       15      0.03%    100.00% # Request fanout histogram (Count)
system.membus.snoopFanout::2                        0      0.00%    100.00% # Request fanout histogram (Count)
system.membus.snoopFanout::3                        0      0.00%    100.00% # Request fanout histogram (Count)
system.membus.snoopFanout::4                        0      0.00%    100.00% # Request fanout histogram (Count)
system.membus.snoopFanout::overflows                0      0.00%    100.00% # Request fanout histogram (Count)
system.membus.snoopFanout::min_value                0                       # Request fanout histogram (Count)
system.membus.snoopFanout::max_value                1                       # Request fanout histogram (Count)
system.membus.snoopFanout::total                56853                       # Request fanout histogram (Count)
system.membus.power_state.pwrStateResidencyTicks::UNDEFINED   5334863000                       # Cumulative time (in ticks) in various power states (Tick)
system.membus.reqLayer2.occupancy           276287500                       # Layer occupancy (ticks) (Tick)
system.membus.reqLayer2.utilization               0.1                       # Layer utilization (Ratio)
system.membus.respLayer1.occupancy          179679000                       # Layer occupancy (ticks) (Tick)
system.membus.respLayer1.utilization              0.0                       # Layer utilization (Ratio)
system.membus.respLayer2.occupancy          114633500                       # Layer occupancy (ticks) (Tick)
system.membus.respLayer2.utilization              0.0                       # Layer utilization (Ratio)
system.membus.snoop_filter.totRequests         112167                       # Total number of requests made to the snoop filter. (Count)
system.membus.snoop_filter.hitSingleRequests        55318                       # Number of requests hitting in the snoop filter with a single holder of the requested data. (Count)
system.membus.snoop_filter.hitMultiRequests           11                       # Number of requests hitting in the snoop filter with multiple (>1) holders of the requested data. (Count)
system.membus.snoop_filter.totSnoops                0                       # Total number of snoops made to the snoop filter. (Count)
system.membus.snoop_filter.hitSingleSnoops            0                       # Number of snoops hitting in the snoop filter with a single holder of the requested data. (Count)
system.membus.snoop_filter.hitMultiSnoops            0                       # Number of snoops hitting in the snoop filter with multiple (>1) holders of the requested data. (Count)
system.voltage_domain.voltage                       1                       # Voltage in Volts (Volt)
system.workload.inst.arm                            0                       # number of arm instructions executed (Count)
system.workload.inst.quiesce                        0                       # number of quiesce instructions executed (Count)
system.cpu.loadValPred.constant_verification_unit.constLoadHits       204921                       # Number of loads marked constant that hit in the CVU CAM (Unspecified)
system.cpu.loadValPred.constant_verification_unit.constLoadMisses       529546                       # Number of loads marked constant that missed in the CVU CAM (Unspecified)
system.cpu.loadValPred.constant_verification_unit.numCAMReplacements       290524                       # Number of CVU CAM entries replaced (Unspecified)
system.cpu.loadValPred.constant_verification_unit.numLoadAccesses       734467                       # Number of loads marked constant which accessed the CVU (Unspecified)
system.cpu.loadValPred.constant_verification_unit.numStoreAccesses      1265912                       # Number of store instructions which accessed the CVU (Unspecified)
system.cpu.loadValPred.constant_verification_unit.numStoreHits       239373                       # Number of stores that hit in the CVU CAM (Unspecified)
system.cpu.loadValPred.constant_verification_unit.numStoreMisses      1026539                       # Number of stores that missed in the CVU CAM (Unspecified)
system.cpu.loadValPred.correctTotal           1203234                       # Number predictions corrects for predictable verification (Unspecified)
system.cpu.loadValPred.numConstLoads           775696                       # Number of loads classified as constant (Unspecified)
system.cpu.loadValPred.numConstLoadsCorrect       204921                       # Number of constant loads correctly predicted (Unspecified)
system.cpu.loadValPred.numConstLoadsMispredicted       529546                       # Number of constant loads incorrectly predicted (Unspecified)
system.cpu.loadValPred.numConstValOne           37122                       # Number of constant loads with value 1 (Unspecified)
system.cpu.loadValPred.numConstValZero          95839                       # Number of constant loads with value 0 (Unspecified)
system.cpu.loadValPred.numPredictableLoads       624481                       # Number of loads classified as predictable (Unspecified)
system.cpu.loadValPred.numPredictableLoadsCorrect       529285                       # Number of loads correctly classified as predictable (Unspecified)
system.cpu.loadValPred.numPredictableLoadsIncorrect        70569                       # Number of loads incorrectly classified as predictable (Unspecified)
system.cpu.loadValPred.totalLoads             2650485                       # Total loads processed by the Load value predictor (Unspecified)
system.cpu.loadValPred.valueLocalityNumerator      1442188                       # Number predictions corrects (Unspecified)

---------- End Simulation Statistics   ----------
