
---------- Begin Simulation Statistics ----------
simSeconds                                   0.004758                       # Number of seconds simulated (Second)
simTicks                                   4757669000                       # Number of ticks simulated (Tick)
finalTick                                  4757669000                       # Number of ticks from beginning of simulation (restored from checkpoints and never reset) (Tick)
simFreq                                  1000000000000                       # The number of ticks per simulated second ((Tick/Second))
hostSeconds                                     77.05                       # Real time elapsed on the host (Second)
hostTickRate                                 61747752                       # The number of ticks simulated per host second (ticks/s) ((Tick/Second))
hostMemory                                    8772300                       # Number of bytes of host memory used (Byte)
simInsts                                     10000003                       # Number of instructions simulated (Count)
simOps                                       18680735                       # Number of ops (including micro ops) simulated (Count)
hostInstRate                                   129785                       # Simulator instruction rate (inst/s) ((Count/Second))
hostOpRate                                     242449                       # Simulator op (including micro ops) rate (op/s) ((Count/Second))
system.clk_domain.clock                          1000                       # Clock period in ticks (Tick)
system.cpu.numCycles                          9515339                       # Number of cpu cycles simulated (Cycle)
system.cpu.numWorkItemsStarted                      0                       # Number of work items this cpu started (Count)
system.cpu.numWorkItemsCompleted                    0                       # Number of work items this cpu completed (Count)
system.cpu.instsAdded                        21540115                       # Number of instructions added to the IQ (excludes non-spec) (Count)
system.cpu.nonSpecInstsAdded                      243                       # Number of non-speculative instructions added to the IQ (Count)
system.cpu.instsIssued                       20559817                       # Number of instructions issued (Count)
system.cpu.squashedInstsIssued                  12388                       # Number of squashed instructions issued (Count)
system.cpu.squashedInstsExamined              2859591                       # Number of squashed instructions iterated over during squash; mainly for profiling (Count)
system.cpu.squashedOperandsExamined           6318092                       # Number of squashed operands that are examined and possibly removed from graph (Count)
system.cpu.squashedNonSpecRemoved                  90                       # Number of squashed non-spec instructions that were removed (Count)
system.cpu.numIssuedDist::samples             8791468                       # Number of insts issued each cycle (Count)
system.cpu.numIssuedDist::mean               2.338610                       # Number of insts issued each cycle (Count)
system.cpu.numIssuedDist::stdev              2.346640                       # Number of insts issued each cycle (Count)
system.cpu.numIssuedDist::underflows                0      0.00%      0.00% # Number of insts issued each cycle (Count)
system.cpu.numIssuedDist::0                   3181178     36.18%     36.18% # Number of insts issued each cycle (Count)
system.cpu.numIssuedDist::1                    808138      9.19%     45.38% # Number of insts issued each cycle (Count)
system.cpu.numIssuedDist::2                   1097841     12.49%     57.86% # Number of insts issued each cycle (Count)
system.cpu.numIssuedDist::3                    983975     11.19%     69.06% # Number of insts issued each cycle (Count)
system.cpu.numIssuedDist::4                    841413      9.57%     78.63% # Number of insts issued each cycle (Count)
system.cpu.numIssuedDist::5                    730071      8.30%     86.93% # Number of insts issued each cycle (Count)
system.cpu.numIssuedDist::6                    619312      7.04%     93.98% # Number of insts issued each cycle (Count)
system.cpu.numIssuedDist::7                    364127      4.14%     98.12% # Number of insts issued each cycle (Count)
system.cpu.numIssuedDist::8                    165413      1.88%    100.00% # Number of insts issued each cycle (Count)
system.cpu.numIssuedDist::overflows                 0      0.00%    100.00% # Number of insts issued each cycle (Count)
system.cpu.numIssuedDist::min_value                 0                       # Number of insts issued each cycle (Count)
system.cpu.numIssuedDist::max_value                 8                       # Number of insts issued each cycle (Count)
system.cpu.numIssuedDist::total               8791468                       # Number of insts issued each cycle (Count)
system.cpu.statFuBusy::No_OpClass                   0      0.00%      0.00% # attempts to use FU when none available (Count)
system.cpu.statFuBusy::IntAlu                  292521     86.68%     86.68% # attempts to use FU when none available (Count)
system.cpu.statFuBusy::IntMult                      0      0.00%     86.68% # attempts to use FU when none available (Count)
system.cpu.statFuBusy::IntDiv                       0      0.00%     86.68% # attempts to use FU when none available (Count)
system.cpu.statFuBusy::FloatAdd                     0      0.00%     86.68% # attempts to use FU when none available (Count)
system.cpu.statFuBusy::FloatCmp                     0      0.00%     86.68% # attempts to use FU when none available (Count)
system.cpu.statFuBusy::FloatCvt                     0      0.00%     86.68% # attempts to use FU when none available (Count)
system.cpu.statFuBusy::FloatMult                    0      0.00%     86.68% # attempts to use FU when none available (Count)
system.cpu.statFuBusy::FloatMultAcc                 0      0.00%     86.68% # attempts to use FU when none available (Count)
system.cpu.statFuBusy::FloatDiv                     0      0.00%     86.68% # attempts to use FU when none available (Count)
system.cpu.statFuBusy::FloatMisc                    0      0.00%     86.68% # attempts to use FU when none available (Count)
system.cpu.statFuBusy::FloatSqrt                    0      0.00%     86.68% # attempts to use FU when none available (Count)
system.cpu.statFuBusy::SimdAdd                      0      0.00%     86.68% # attempts to use FU when none available (Count)
system.cpu.statFuBusy::SimdAddAcc                   0      0.00%     86.68% # attempts to use FU when none available (Count)
system.cpu.statFuBusy::SimdAlu                      0      0.00%     86.68% # attempts to use FU when none available (Count)
system.cpu.statFuBusy::SimdCmp                      0      0.00%     86.68% # attempts to use FU when none available (Count)
system.cpu.statFuBusy::SimdCvt                      5      0.00%     86.68% # attempts to use FU when none available (Count)
system.cpu.statFuBusy::SimdMisc                     0      0.00%     86.68% # attempts to use FU when none available (Count)
system.cpu.statFuBusy::SimdMult                     0      0.00%     86.68% # attempts to use FU when none available (Count)
system.cpu.statFuBusy::SimdMultAcc                  0      0.00%     86.68% # attempts to use FU when none available (Count)
system.cpu.statFuBusy::SimdShift                    6      0.00%     86.68% # attempts to use FU when none available (Count)
system.cpu.statFuBusy::SimdShiftAcc                 0      0.00%     86.68% # attempts to use FU when none available (Count)
system.cpu.statFuBusy::SimdDiv                      0      0.00%     86.68% # attempts to use FU when none available (Count)
system.cpu.statFuBusy::SimdSqrt                     0      0.00%     86.68% # attempts to use FU when none available (Count)
system.cpu.statFuBusy::SimdFloatAdd                 0      0.00%     86.68% # attempts to use FU when none available (Count)
system.cpu.statFuBusy::SimdFloatAlu                 0      0.00%     86.68% # attempts to use FU when none available (Count)
system.cpu.statFuBusy::SimdFloatCmp                 0      0.00%     86.68% # attempts to use FU when none available (Count)
system.cpu.statFuBusy::SimdFloatCvt                 0      0.00%     86.68% # attempts to use FU when none available (Count)
system.cpu.statFuBusy::SimdFloatDiv                 0      0.00%     86.68% # attempts to use FU when none available (Count)
system.cpu.statFuBusy::SimdFloatMisc                0      0.00%     86.68% # attempts to use FU when none available (Count)
system.cpu.statFuBusy::SimdFloatMult                0      0.00%     86.68% # attempts to use FU when none available (Count)
system.cpu.statFuBusy::SimdFloatMultAcc             0      0.00%     86.68% # attempts to use FU when none available (Count)
system.cpu.statFuBusy::SimdFloatSqrt                0      0.00%     86.68% # attempts to use FU when none available (Count)
system.cpu.statFuBusy::SimdReduceAdd                0      0.00%     86.68% # attempts to use FU when none available (Count)
system.cpu.statFuBusy::SimdReduceAlu                0      0.00%     86.68% # attempts to use FU when none available (Count)
system.cpu.statFuBusy::SimdReduceCmp                0      0.00%     86.68% # attempts to use FU when none available (Count)
system.cpu.statFuBusy::SimdFloatReduceAdd            0      0.00%     86.68% # attempts to use FU when none available (Count)
system.cpu.statFuBusy::SimdFloatReduceCmp            0      0.00%     86.68% # attempts to use FU when none available (Count)
system.cpu.statFuBusy::SimdAes                      0      0.00%     86.68% # attempts to use FU when none available (Count)
system.cpu.statFuBusy::SimdAesMix                   0      0.00%     86.68% # attempts to use FU when none available (Count)
system.cpu.statFuBusy::SimdSha1Hash                 0      0.00%     86.68% # attempts to use FU when none available (Count)
system.cpu.statFuBusy::SimdSha1Hash2                0      0.00%     86.68% # attempts to use FU when none available (Count)
system.cpu.statFuBusy::SimdSha256Hash               0      0.00%     86.68% # attempts to use FU when none available (Count)
system.cpu.statFuBusy::SimdSha256Hash2              0      0.00%     86.68% # attempts to use FU when none available (Count)
system.cpu.statFuBusy::SimdShaSigma2                0      0.00%     86.68% # attempts to use FU when none available (Count)
system.cpu.statFuBusy::SimdShaSigma3                0      0.00%     86.68% # attempts to use FU when none available (Count)
system.cpu.statFuBusy::SimdPredAlu                  0      0.00%     86.68% # attempts to use FU when none available (Count)
system.cpu.statFuBusy::MemRead                  34575     10.24%     96.93% # attempts to use FU when none available (Count)
system.cpu.statFuBusy::MemWrite                 10117      3.00%     99.92% # attempts to use FU when none available (Count)
system.cpu.statFuBusy::FloatMemRead               240      0.07%     99.99% # attempts to use FU when none available (Count)
system.cpu.statFuBusy::FloatMemWrite               18      0.01%    100.00% # attempts to use FU when none available (Count)
system.cpu.statFuBusy::IprAccess                    0      0.00%    100.00% # attempts to use FU when none available (Count)
system.cpu.statFuBusy::InstPrefetch                 0      0.00%    100.00% # attempts to use FU when none available (Count)
system.cpu.statIssuedInstType_0::No_OpClass        63533      0.31%      0.31% # Number of instructions issued per FU type, per thread (Count)
system.cpu.statIssuedInstType_0::IntAlu      16678238     81.12%     81.43% # Number of instructions issued per FU type, per thread (Count)
system.cpu.statIssuedInstType_0::IntMult         8007      0.04%     81.47% # Number of instructions issued per FU type, per thread (Count)
system.cpu.statIssuedInstType_0::IntDiv        157773      0.77%     82.24% # Number of instructions issued per FU type, per thread (Count)
system.cpu.statIssuedInstType_0::FloatAdd        11748      0.06%     82.29% # Number of instructions issued per FU type, per thread (Count)
system.cpu.statIssuedInstType_0::FloatCmp            0      0.00%     82.29% # Number of instructions issued per FU type, per thread (Count)
system.cpu.statIssuedInstType_0::FloatCvt          301      0.00%     82.29% # Number of instructions issued per FU type, per thread (Count)
system.cpu.statIssuedInstType_0::FloatMult            0      0.00%     82.29% # Number of instructions issued per FU type, per thread (Count)
system.cpu.statIssuedInstType_0::FloatMultAcc            0      0.00%     82.29% # Number of instructions issued per FU type, per thread (Count)
system.cpu.statIssuedInstType_0::FloatDiv            0      0.00%     82.29% # Number of instructions issued per FU type, per thread (Count)
system.cpu.statIssuedInstType_0::FloatMisc            0      0.00%     82.29% # Number of instructions issued per FU type, per thread (Count)
system.cpu.statIssuedInstType_0::FloatSqrt            0      0.00%     82.29% # Number of instructions issued per FU type, per thread (Count)
system.cpu.statIssuedInstType_0::SimdAdd         1399      0.01%     82.30% # Number of instructions issued per FU type, per thread (Count)
system.cpu.statIssuedInstType_0::SimdAddAcc            0      0.00%     82.30% # Number of instructions issued per FU type, per thread (Count)
system.cpu.statIssuedInstType_0::SimdAlu        13520      0.07%     82.37% # Number of instructions issued per FU type, per thread (Count)
system.cpu.statIssuedInstType_0::SimdCmp            0      0.00%     82.37% # Number of instructions issued per FU type, per thread (Count)
system.cpu.statIssuedInstType_0::SimdCvt        14468      0.07%     82.44% # Number of instructions issued per FU type, per thread (Count)
system.cpu.statIssuedInstType_0::SimdMisc        13269      0.06%     82.50% # Number of instructions issued per FU type, per thread (Count)
system.cpu.statIssuedInstType_0::SimdMult            0      0.00%     82.50% # Number of instructions issued per FU type, per thread (Count)
system.cpu.statIssuedInstType_0::SimdMultAcc            0      0.00%     82.50% # Number of instructions issued per FU type, per thread (Count)
system.cpu.statIssuedInstType_0::SimdShift         1001      0.00%     82.51% # Number of instructions issued per FU type, per thread (Count)
system.cpu.statIssuedInstType_0::SimdShiftAcc            0      0.00%     82.51% # Number of instructions issued per FU type, per thread (Count)
system.cpu.statIssuedInstType_0::SimdDiv            0      0.00%     82.51% # Number of instructions issued per FU type, per thread (Count)
system.cpu.statIssuedInstType_0::SimdSqrt            0      0.00%     82.51% # Number of instructions issued per FU type, per thread (Count)
system.cpu.statIssuedInstType_0::SimdFloatAdd           21      0.00%     82.51% # Number of instructions issued per FU type, per thread (Count)
system.cpu.statIssuedInstType_0::SimdFloatAlu            0      0.00%     82.51% # Number of instructions issued per FU type, per thread (Count)
system.cpu.statIssuedInstType_0::SimdFloatCmp            0      0.00%     82.51% # Number of instructions issued per FU type, per thread (Count)
system.cpu.statIssuedInstType_0::SimdFloatCvt            4      0.00%     82.51% # Number of instructions issued per FU type, per thread (Count)
system.cpu.statIssuedInstType_0::SimdFloatDiv            9      0.00%     82.51% # Number of instructions issued per FU type, per thread (Count)
system.cpu.statIssuedInstType_0::SimdFloatMisc            0      0.00%     82.51% # Number of instructions issued per FU type, per thread (Count)
system.cpu.statIssuedInstType_0::SimdFloatMult           36      0.00%     82.51% # Number of instructions issued per FU type, per thread (Count)
system.cpu.statIssuedInstType_0::SimdFloatMultAcc            0      0.00%     82.51% # Number of instructions issued per FU type, per thread (Count)
system.cpu.statIssuedInstType_0::SimdFloatSqrt            0      0.00%     82.51% # Number of instructions issued per FU type, per thread (Count)
system.cpu.statIssuedInstType_0::SimdReduceAdd            0      0.00%     82.51% # Number of instructions issued per FU type, per thread (Count)
system.cpu.statIssuedInstType_0::SimdReduceAlu            0      0.00%     82.51% # Number of instructions issued per FU type, per thread (Count)
system.cpu.statIssuedInstType_0::SimdReduceCmp            0      0.00%     82.51% # Number of instructions issued per FU type, per thread (Count)
system.cpu.statIssuedInstType_0::SimdFloatReduceAdd            0      0.00%     82.51% # Number of instructions issued per FU type, per thread (Count)
system.cpu.statIssuedInstType_0::SimdFloatReduceCmp            0      0.00%     82.51% # Number of instructions issued per FU type, per thread (Count)
system.cpu.statIssuedInstType_0::SimdAes            0      0.00%     82.51% # Number of instructions issued per FU type, per thread (Count)
system.cpu.statIssuedInstType_0::SimdAesMix            0      0.00%     82.51% # Number of instructions issued per FU type, per thread (Count)
system.cpu.statIssuedInstType_0::SimdSha1Hash            0      0.00%     82.51% # Number of instructions issued per FU type, per thread (Count)
system.cpu.statIssuedInstType_0::SimdSha1Hash2            0      0.00%     82.51% # Number of instructions issued per FU type, per thread (Count)
system.cpu.statIssuedInstType_0::SimdSha256Hash            0      0.00%     82.51% # Number of instructions issued per FU type, per thread (Count)
system.cpu.statIssuedInstType_0::SimdSha256Hash2            0      0.00%     82.51% # Number of instructions issued per FU type, per thread (Count)
system.cpu.statIssuedInstType_0::SimdShaSigma2            0      0.00%     82.51% # Number of instructions issued per FU type, per thread (Count)
system.cpu.statIssuedInstType_0::SimdShaSigma3            0      0.00%     82.51% # Number of instructions issued per FU type, per thread (Count)
system.cpu.statIssuedInstType_0::SimdPredAlu            0      0.00%     82.51% # Number of instructions issued per FU type, per thread (Count)
system.cpu.statIssuedInstType_0::MemRead      2425610     11.80%     94.31% # Number of instructions issued per FU type, per thread (Count)
system.cpu.statIssuedInstType_0::MemWrite      1131891      5.51%     99.81% # Number of instructions issued per FU type, per thread (Count)
system.cpu.statIssuedInstType_0::FloatMemRead        27098      0.13%     99.94% # Number of instructions issued per FU type, per thread (Count)
system.cpu.statIssuedInstType_0::FloatMemWrite        11891      0.06%    100.00% # Number of instructions issued per FU type, per thread (Count)
system.cpu.statIssuedInstType_0::IprAccess            0      0.00%    100.00% # Number of instructions issued per FU type, per thread (Count)
system.cpu.statIssuedInstType_0::InstPrefetch            0      0.00%    100.00% # Number of instructions issued per FU type, per thread (Count)
system.cpu.statIssuedInstType_0::total       20559817                       # Number of instructions issued per FU type, per thread (Count)
system.cpu.issueRate                         2.160703                       # Inst issue rate ((Count/Cycle))
system.cpu.fuBusy                              337482                       # FU busy when requested (Count)
system.cpu.fuBusyRate                        0.016415                       # FU busy rate (busy events/executed inst) ((Count/Count))
system.cpu.intInstQueueReads                 50070728                       # Number of integer instruction queue reads (Count)
system.cpu.intInstQueueWrites                24296979                       # Number of integer instruction queue writes (Count)
system.cpu.intInstQueueWakeupAccesses        20225939                       # Number of integer instruction queue wakeup accesses (Count)
system.cpu.fpInstQueueReads                    190240                       # Number of floating instruction queue reads (Count)
system.cpu.fpInstQueueWrites                   103282                       # Number of floating instruction queue writes (Count)
system.cpu.fpInstQueueWakeupAccesses            94002                       # Number of floating instruction queue wakeup accesses (Count)
system.cpu.vecInstQueueReads                        0                       # Number of vector instruction queue reads (Count)
system.cpu.vecInstQueueWrites                       0                       # Number of vector instruction queue writes (Count)
system.cpu.vecInstQueueWakeupAccesses               0                       # Number of vector instruction queue wakeup accesses (Count)
system.cpu.intAluAccesses                    20738545                       # Number of integer alu accesses (Count)
system.cpu.fpAluAccesses                        95221                       # Number of floating point alu accesses (Count)
system.cpu.vecAluAccesses                           0                       # Number of vector alu accesses (Count)
system.cpu.numInsts                          20398750                       # Number of executed instructions (Count)
system.cpu.numLoadInsts                       2420073                       # Number of load instructions executed (Count)
system.cpu.numSquashedInsts                    161063                       # Number of squashed instructions skipped in execute (Count)
system.cpu.numSwp                                   0                       # Number of swp insts executed (Count)
system.cpu.numNop                                   0                       # Number of nop insts executed (Count)
system.cpu.numRefs                            3550891                       # Number of memory reference insts executed (Count)
system.cpu.numBranches                        2221824                       # Number of branches executed (Count)
system.cpu.numStoreInsts                      1130818                       # Number of stores executed (Count)
system.cpu.numRate                           2.143775                       # Inst execution rate ((Count/Cycle))
system.cpu.timesIdled                           31102                       # Number of times that the entire CPU went into an idle state and unscheduled itself (Count)
system.cpu.idleCycles                          723871                       # Total number of cycles that the CPU has spent unscheduled due to idling (Cycle)
system.cpu.committedInsts                    10000003                       # Number of Instructions Simulated (Count)
system.cpu.committedOps                      18680735                       # Number of Ops (including micro ops) Simulated (Count)
system.cpu.cpi                               0.951534                       # CPI: Cycles Per Instruction ((Cycle/Count))
system.cpu.totalCpi                          0.951534                       # CPI: Total CPI of All Threads ((Cycle/Count))
system.cpu.ipc                               1.050935                       # IPC: Instructions Per Cycle ((Count/Cycle))
system.cpu.totalIpc                          1.050935                       # IPC: Total IPC of All Threads ((Count/Cycle))
system.cpu.intRegfileReads                   29497576                       # Number of integer regfile reads (Count)
system.cpu.intRegfileWrites                  15344745                       # Number of integer regfile writes (Count)
system.cpu.fpRegfileReads                      129127                       # Number of floating regfile reads (Count)
system.cpu.fpRegfileWrites                      69077                       # Number of floating regfile writes (Count)
system.cpu.ccRegfileReads                    13141247                       # number of cc regfile reads (Count)
system.cpu.ccRegfileWrites                    7856789                       # number of cc regfile writes (Count)
system.cpu.miscRegfileReads                   8030946                       # number of misc regfile reads (Count)
system.cpu.miscRegfileWrites                      153                       # number of misc regfile writes (Count)
system.cpu.MemDepUnit__0.insertedLoads        2546227                       # Number of loads inserted to the mem dependence unit. (Count)
system.cpu.MemDepUnit__0.insertedStores       1179761                       # Number of stores inserted to the mem dependence unit. (Count)
system.cpu.MemDepUnit__0.conflictingLoads       178595                       # Number of conflicting loads. (Count)
system.cpu.MemDepUnit__0.conflictingStores       117910                       # Number of conflicting stores. (Count)
system.cpu.MemDepUnit__1.insertedLoads              0                       # Number of loads inserted to the mem dependence unit. (Count)
system.cpu.MemDepUnit__1.insertedStores             0                       # Number of stores inserted to the mem dependence unit. (Count)
system.cpu.MemDepUnit__1.conflictingLoads            0                       # Number of conflicting loads. (Count)
system.cpu.MemDepUnit__1.conflictingStores            0                       # Number of conflicting stores. (Count)
system.cpu.MemDepUnit__2.insertedLoads              0                       # Number of loads inserted to the mem dependence unit. (Count)
system.cpu.MemDepUnit__2.insertedStores             0                       # Number of stores inserted to the mem dependence unit. (Count)
system.cpu.MemDepUnit__2.conflictingLoads            0                       # Number of conflicting loads. (Count)
system.cpu.MemDepUnit__2.conflictingStores            0                       # Number of conflicting stores. (Count)
system.cpu.MemDepUnit__3.insertedLoads              0                       # Number of loads inserted to the mem dependence unit. (Count)
system.cpu.MemDepUnit__3.insertedStores             0                       # Number of stores inserted to the mem dependence unit. (Count)
system.cpu.MemDepUnit__3.conflictingLoads            0                       # Number of conflicting loads. (Count)
system.cpu.MemDepUnit__3.conflictingStores            0                       # Number of conflicting stores. (Count)
system.cpu.branchPred.lookups                 2616114                       # Number of BP lookups (Count)
system.cpu.branchPred.condPredicted           2154217                       # Number of conditional branches predicted (Count)
system.cpu.branchPred.condIncorrect             58657                       # Number of conditional branches incorrect (Count)
system.cpu.branchPred.BTBLookups              1297593                       # Number of BTB lookups (Count)
system.cpu.branchPred.BTBHits                 1279149                       # Number of BTB hits (Count)
system.cpu.branchPred.BTBHitRatio            0.985786                       # BTB Hit Ratio (Ratio)
system.cpu.branchPred.RASUsed                  101899                       # Number of times the RAS was used to get a target. (Count)
system.cpu.branchPred.RASIncorrect                 13                       # Number of incorrect RAS predictions. (Count)
system.cpu.branchPred.indirectLookups           21046                       # Number of indirect predictor lookups. (Count)
system.cpu.branchPred.indirectHits              18485                       # Number of indirect target hits. (Count)
system.cpu.branchPred.indirectMisses             2561                       # Number of indirect misses. (Count)
system.cpu.branchPred.indirectMispredicted          629                       # Number of mispredicted indirect branches. (Count)
system.cpu.commit.commitSquashedInsts         2852443                       # The number of squashed insts skipped by commit (Count)
system.cpu.commit.commitNonSpecStalls             153                       # The number of times commit has been forced to stall to communicate backwards (Count)
system.cpu.commit.branchMispredicts             69186                       # The number of times a branch was mispredicted (Count)
system.cpu.commit.numCommittedDist::samples      8396347                       # Number of insts commited each cycle (Count)
system.cpu.commit.numCommittedDist::mean     2.224865                       # Number of insts commited each cycle (Count)
system.cpu.commit.numCommittedDist::stdev     2.700274                       # Number of insts commited each cycle (Count)
system.cpu.commit.numCommittedDist::underflows            0      0.00%      0.00% # Number of insts commited each cycle (Count)
system.cpu.commit.numCommittedDist::0         3375866     40.21%     40.21% # Number of insts commited each cycle (Count)
system.cpu.commit.numCommittedDist::1         1284252     15.30%     55.50% # Number of insts commited each cycle (Count)
system.cpu.commit.numCommittedDist::2          753734      8.98%     64.48% # Number of insts commited each cycle (Count)
system.cpu.commit.numCommittedDist::3         1039275     12.38%     76.86% # Number of insts commited each cycle (Count)
system.cpu.commit.numCommittedDist::4          362718      4.32%     81.18% # Number of insts commited each cycle (Count)
system.cpu.commit.numCommittedDist::5          280773      3.34%     84.52% # Number of insts commited each cycle (Count)
system.cpu.commit.numCommittedDist::6          173215      2.06%     86.58% # Number of insts commited each cycle (Count)
system.cpu.commit.numCommittedDist::7          134949      1.61%     88.19% # Number of insts commited each cycle (Count)
system.cpu.commit.numCommittedDist::8          991565     11.81%    100.00% # Number of insts commited each cycle (Count)
system.cpu.commit.numCommittedDist::overflows            0      0.00%    100.00% # Number of insts commited each cycle (Count)
system.cpu.commit.numCommittedDist::min_value            0                       # Number of insts commited each cycle (Count)
system.cpu.commit.numCommittedDist::max_value            8                       # Number of insts commited each cycle (Count)
system.cpu.commit.numCommittedDist::total      8396347                       # Number of insts commited each cycle (Count)
system.cpu.commit.instsCommitted             10000003                       # Number of instructions committed (Count)
system.cpu.commit.opsCommitted               18680735                       # Number of ops (including micro ops) committed (Count)
system.cpu.commit.memRefs                     3248914                       # Number of memory references committed (Count)
system.cpu.commit.loads                       2182730                       # Number of loads committed (Count)
system.cpu.commit.amos                              0                       # Number of atomic instructions committed (Count)
system.cpu.commit.membars                           0                       # Number of memory barriers committed (Count)
system.cpu.commit.branches                    2101132                       # Number of branches committed (Count)
system.cpu.commit.vectorInstructions                0                       # Number of committed Vector instructions. (Count)
system.cpu.commit.floating                      90670                       # Number of committed floating point instructions. (Count)
system.cpu.commit.integer                    18521163                       # Number of committed integer instructions. (Count)
system.cpu.commit.functionCalls                 87943                       # Number of function calls committed. (Count)
system.cpu.commit.committedInstType_0::No_OpClass        58287      0.31%      0.31% # Class of committed instruction (Count)
system.cpu.commit.committedInstType_0::IntAlu     15160661     81.16%     81.47% # Class of committed instruction (Count)
system.cpu.commit.committedInstType_0::IntMult         7802      0.04%     81.51% # Class of committed instruction (Count)
system.cpu.commit.committedInstType_0::IntDiv       152005      0.81%     82.32% # Class of committed instruction (Count)
system.cpu.commit.committedInstType_0::FloatAdd        11510      0.06%     82.39% # Class of committed instruction (Count)
system.cpu.commit.committedInstType_0::FloatCmp            0      0.00%     82.39% # Class of committed instruction (Count)
system.cpu.commit.committedInstType_0::FloatCvt          272      0.00%     82.39% # Class of committed instruction (Count)
system.cpu.commit.committedInstType_0::FloatMult            0      0.00%     82.39% # Class of committed instruction (Count)
system.cpu.commit.committedInstType_0::FloatMultAcc            0      0.00%     82.39% # Class of committed instruction (Count)
system.cpu.commit.committedInstType_0::FloatDiv            0      0.00%     82.39% # Class of committed instruction (Count)
system.cpu.commit.committedInstType_0::FloatMisc            0      0.00%     82.39% # Class of committed instruction (Count)
system.cpu.commit.committedInstType_0::FloatSqrt            0      0.00%     82.39% # Class of committed instruction (Count)
system.cpu.commit.committedInstType_0::SimdAdd         1178      0.01%     82.39% # Class of committed instruction (Count)
system.cpu.commit.committedInstType_0::SimdAddAcc            0      0.00%     82.39% # Class of committed instruction (Count)
system.cpu.commit.committedInstType_0::SimdAlu        12651      0.07%     82.46% # Class of committed instruction (Count)
system.cpu.commit.committedInstType_0::SimdCmp            0      0.00%     82.46% # Class of committed instruction (Count)
system.cpu.commit.committedInstType_0::SimdCvt        13812      0.07%     82.54% # Class of committed instruction (Count)
system.cpu.commit.committedInstType_0::SimdMisc        12991      0.07%     82.60% # Class of committed instruction (Count)
system.cpu.commit.committedInstType_0::SimdMult            0      0.00%     82.60% # Class of committed instruction (Count)
system.cpu.commit.committedInstType_0::SimdMultAcc            0      0.00%     82.60% # Class of committed instruction (Count)
system.cpu.commit.committedInstType_0::SimdShift          582      0.00%     82.61% # Class of committed instruction (Count)
system.cpu.commit.committedInstType_0::SimdShiftAcc            0      0.00%     82.61% # Class of committed instruction (Count)
system.cpu.commit.committedInstType_0::SimdDiv            0      0.00%     82.61% # Class of committed instruction (Count)
system.cpu.commit.committedInstType_0::SimdSqrt            0      0.00%     82.61% # Class of committed instruction (Count)
system.cpu.commit.committedInstType_0::SimdFloatAdd           21      0.00%     82.61% # Class of committed instruction (Count)
system.cpu.commit.committedInstType_0::SimdFloatAlu            0      0.00%     82.61% # Class of committed instruction (Count)
system.cpu.commit.committedInstType_0::SimdFloatCmp            0      0.00%     82.61% # Class of committed instruction (Count)
system.cpu.commit.committedInstType_0::SimdFloatCvt            4      0.00%     82.61% # Class of committed instruction (Count)
system.cpu.commit.committedInstType_0::SimdFloatDiv            9      0.00%     82.61% # Class of committed instruction (Count)
system.cpu.commit.committedInstType_0::SimdFloatMisc            0      0.00%     82.61% # Class of committed instruction (Count)
system.cpu.commit.committedInstType_0::SimdFloatMult           36      0.00%     82.61% # Class of committed instruction (Count)
system.cpu.commit.committedInstType_0::SimdFloatMultAcc            0      0.00%     82.61% # Class of committed instruction (Count)
system.cpu.commit.committedInstType_0::SimdFloatSqrt            0      0.00%     82.61% # Class of committed instruction (Count)
system.cpu.commit.committedInstType_0::SimdReduceAdd            0      0.00%     82.61% # Class of committed instruction (Count)
system.cpu.commit.committedInstType_0::SimdReduceAlu            0      0.00%     82.61% # Class of committed instruction (Count)
system.cpu.commit.committedInstType_0::SimdReduceCmp            0      0.00%     82.61% # Class of committed instruction (Count)
system.cpu.commit.committedInstType_0::SimdFloatReduceAdd            0      0.00%     82.61% # Class of committed instruction (Count)
system.cpu.commit.committedInstType_0::SimdFloatReduceCmp            0      0.00%     82.61% # Class of committed instruction (Count)
system.cpu.commit.committedInstType_0::SimdAes            0      0.00%     82.61% # Class of committed instruction (Count)
system.cpu.commit.committedInstType_0::SimdAesMix            0      0.00%     82.61% # Class of committed instruction (Count)
system.cpu.commit.committedInstType_0::SimdSha1Hash            0      0.00%     82.61% # Class of committed instruction (Count)
system.cpu.commit.committedInstType_0::SimdSha1Hash2            0      0.00%     82.61% # Class of committed instruction (Count)
system.cpu.commit.committedInstType_0::SimdSha256Hash            0      0.00%     82.61% # Class of committed instruction (Count)
system.cpu.commit.committedInstType_0::SimdSha256Hash2            0      0.00%     82.61% # Class of committed instruction (Count)
system.cpu.commit.committedInstType_0::SimdShaSigma2            0      0.00%     82.61% # Class of committed instruction (Count)
system.cpu.commit.committedInstType_0::SimdShaSigma3            0      0.00%     82.61% # Class of committed instruction (Count)
system.cpu.commit.committedInstType_0::SimdPredAlu            0      0.00%     82.61% # Class of committed instruction (Count)
system.cpu.commit.committedInstType_0::MemRead      2157110     11.55%     94.16% # Class of committed instruction (Count)
system.cpu.commit.committedInstType_0::MemWrite      1054345      5.64%     99.80% # Class of committed instruction (Count)
system.cpu.commit.committedInstType_0::FloatMemRead        25620      0.14%     99.94% # Class of committed instruction (Count)
system.cpu.commit.committedInstType_0::FloatMemWrite        11839      0.06%    100.00% # Class of committed instruction (Count)
system.cpu.commit.committedInstType_0::IprAccess            0      0.00%    100.00% # Class of committed instruction (Count)
system.cpu.commit.committedInstType_0::InstPrefetch            0      0.00%    100.00% # Class of committed instruction (Count)
system.cpu.commit.committedInstType_0::total     18680735                       # Class of committed instruction (Count)
system.cpu.commit.commitEligibleSamples        991565                       # number cycles where commit BW limit reached (Cycle)
system.cpu.dcache.demandHits::cpu.data        3086357                       # number of demand (read+write) hits (Count)
system.cpu.dcache.demandHits::total           3086357                       # number of demand (read+write) hits (Count)
system.cpu.dcache.overallHits::cpu.data       3086357                       # number of overall hits (Count)
system.cpu.dcache.overallHits::total          3086357                       # number of overall hits (Count)
system.cpu.dcache.demandMisses::cpu.data        58406                       # number of demand (read+write) misses (Count)
system.cpu.dcache.demandMisses::total           58406                       # number of demand (read+write) misses (Count)
system.cpu.dcache.overallMisses::cpu.data        58406                       # number of overall misses (Count)
system.cpu.dcache.overallMisses::total          58406                       # number of overall misses (Count)
system.cpu.dcache.demandMissLatency::cpu.data   3680267970                       # number of demand (read+write) miss ticks (Tick)
system.cpu.dcache.demandMissLatency::total   3680267970                       # number of demand (read+write) miss ticks (Tick)
system.cpu.dcache.overallMissLatency::cpu.data   3680267970                       # number of overall miss ticks (Tick)
system.cpu.dcache.overallMissLatency::total   3680267970                       # number of overall miss ticks (Tick)
system.cpu.dcache.demandAccesses::cpu.data      3144763                       # number of demand (read+write) accesses (Count)
system.cpu.dcache.demandAccesses::total       3144763                       # number of demand (read+write) accesses (Count)
system.cpu.dcache.overallAccesses::cpu.data      3144763                       # number of overall (read+write) accesses (Count)
system.cpu.dcache.overallAccesses::total      3144763                       # number of overall (read+write) accesses (Count)
system.cpu.dcache.demandMissRate::cpu.data     0.018572                       # miss rate for demand accesses (Ratio)
system.cpu.dcache.demandMissRate::total      0.018572                       # miss rate for demand accesses (Ratio)
system.cpu.dcache.overallMissRate::cpu.data     0.018572                       # miss rate for overall accesses (Ratio)
system.cpu.dcache.overallMissRate::total     0.018572                       # miss rate for overall accesses (Ratio)
system.cpu.dcache.demandAvgMissLatency::cpu.data 63011.813341                       # average overall miss latency in ticks ((Tick/Count))
system.cpu.dcache.demandAvgMissLatency::total 63011.813341                       # average overall miss latency in ticks ((Tick/Count))
system.cpu.dcache.overallAvgMissLatency::cpu.data 63011.813341                       # average overall miss latency ((Tick/Count))
system.cpu.dcache.overallAvgMissLatency::total 63011.813341                       # average overall miss latency ((Tick/Count))
system.cpu.dcache.blockedCycles::no_mshrs        26684                       # number of cycles access was blocked (Cycle)
system.cpu.dcache.blockedCycles::no_targets          855                       # number of cycles access was blocked (Cycle)
system.cpu.dcache.blockedCauses::no_mshrs          600                       # number of times access was blocked (Count)
system.cpu.dcache.blockedCauses::no_targets            8                       # number of times access was blocked (Count)
system.cpu.dcache.avgBlocked::no_mshrs      44.473333                       # average number of cycles each access was blocked ((Cycle/Count))
system.cpu.dcache.avgBlocked::no_targets   106.875000                       # average number of cycles each access was blocked ((Cycle/Count))
system.cpu.dcache.writebacks::writebacks         3104                       # number of writebacks (Count)
system.cpu.dcache.writebacks::total              3104                       # number of writebacks (Count)
system.cpu.dcache.demandMshrHits::cpu.data        37159                       # number of demand (read+write) MSHR hits (Count)
system.cpu.dcache.demandMshrHits::total         37159                       # number of demand (read+write) MSHR hits (Count)
system.cpu.dcache.overallMshrHits::cpu.data        37159                       # number of overall MSHR hits (Count)
system.cpu.dcache.overallMshrHits::total        37159                       # number of overall MSHR hits (Count)
system.cpu.dcache.demandMshrMisses::cpu.data        21247                       # number of demand (read+write) MSHR misses (Count)
system.cpu.dcache.demandMshrMisses::total        21247                       # number of demand (read+write) MSHR misses (Count)
system.cpu.dcache.overallMshrMisses::cpu.data        21247                       # number of overall MSHR misses (Count)
system.cpu.dcache.overallMshrMisses::total        21247                       # number of overall MSHR misses (Count)
system.cpu.dcache.demandMshrMissLatency::cpu.data   1457648470                       # number of demand (read+write) MSHR miss ticks (Tick)
system.cpu.dcache.demandMshrMissLatency::total   1457648470                       # number of demand (read+write) MSHR miss ticks (Tick)
system.cpu.dcache.overallMshrMissLatency::cpu.data   1457648470                       # number of overall MSHR miss ticks (Tick)
system.cpu.dcache.overallMshrMissLatency::total   1457648470                       # number of overall MSHR miss ticks (Tick)
system.cpu.dcache.demandMshrMissRate::cpu.data     0.006756                       # mshr miss ratio for demand accesses (Ratio)
system.cpu.dcache.demandMshrMissRate::total     0.006756                       # mshr miss ratio for demand accesses (Ratio)
system.cpu.dcache.overallMshrMissRate::cpu.data     0.006756                       # mshr miss ratio for overall accesses (Ratio)
system.cpu.dcache.overallMshrMissRate::total     0.006756                       # mshr miss ratio for overall accesses (Ratio)
system.cpu.dcache.demandAvgMshrMissLatency::cpu.data 68604.907516                       # average overall mshr miss latency ((Tick/Count))
system.cpu.dcache.demandAvgMshrMissLatency::total 68604.907516                       # average overall mshr miss latency ((Tick/Count))
system.cpu.dcache.overallAvgMshrMissLatency::cpu.data 68604.907516                       # average overall mshr miss latency ((Tick/Count))
system.cpu.dcache.overallAvgMshrMissLatency::total 68604.907516                       # average overall mshr miss latency ((Tick/Count))
system.cpu.dcache.replacements                  20217                       # number of replacements (Count)
system.cpu.dcache.ReadReq.hits::cpu.data      2023678                       # number of ReadReq hits (Count)
system.cpu.dcache.ReadReq.hits::total         2023678                       # number of ReadReq hits (Count)
system.cpu.dcache.ReadReq.misses::cpu.data        54893                       # number of ReadReq misses (Count)
system.cpu.dcache.ReadReq.misses::total         54893                       # number of ReadReq misses (Count)
system.cpu.dcache.ReadReq.missLatency::cpu.data   3454129500                       # number of ReadReq miss ticks (Tick)
system.cpu.dcache.ReadReq.missLatency::total   3454129500                       # number of ReadReq miss ticks (Tick)
system.cpu.dcache.ReadReq.accesses::cpu.data      2078571                       # number of ReadReq accesses(hits+misses) (Count)
system.cpu.dcache.ReadReq.accesses::total      2078571                       # number of ReadReq accesses(hits+misses) (Count)
system.cpu.dcache.ReadReq.missRate::cpu.data     0.026409                       # miss rate for ReadReq accesses (Ratio)
system.cpu.dcache.ReadReq.missRate::total     0.026409                       # miss rate for ReadReq accesses (Ratio)
system.cpu.dcache.ReadReq.avgMissLatency::cpu.data 62924.771829                       # average ReadReq miss latency ((Tick/Count))
system.cpu.dcache.ReadReq.avgMissLatency::total 62924.771829                       # average ReadReq miss latency ((Tick/Count))
system.cpu.dcache.ReadReq.mshrHits::cpu.data        37108                       # number of ReadReq MSHR hits (Count)
system.cpu.dcache.ReadReq.mshrHits::total        37108                       # number of ReadReq MSHR hits (Count)
system.cpu.dcache.ReadReq.mshrMisses::cpu.data        17785                       # number of ReadReq MSHR misses (Count)
system.cpu.dcache.ReadReq.mshrMisses::total        17785                       # number of ReadReq MSHR misses (Count)
system.cpu.dcache.ReadReq.mshrMissLatency::cpu.data   1236571500                       # number of ReadReq MSHR miss ticks (Tick)
system.cpu.dcache.ReadReq.mshrMissLatency::total   1236571500                       # number of ReadReq MSHR miss ticks (Tick)
system.cpu.dcache.ReadReq.mshrMissRate::cpu.data     0.008556                       # mshr miss rate for ReadReq accesses (Ratio)
system.cpu.dcache.ReadReq.mshrMissRate::total     0.008556                       # mshr miss rate for ReadReq accesses (Ratio)
system.cpu.dcache.ReadReq.avgMshrMissLatency::cpu.data 69528.900759                       # average ReadReq mshr miss latency ((Tick/Count))
system.cpu.dcache.ReadReq.avgMshrMissLatency::total 69528.900759                       # average ReadReq mshr miss latency ((Tick/Count))
system.cpu.dcache.WriteReq.hits::cpu.data      1062679                       # number of WriteReq hits (Count)
system.cpu.dcache.WriteReq.hits::total        1062679                       # number of WriteReq hits (Count)
system.cpu.dcache.WriteReq.misses::cpu.data         3513                       # number of WriteReq misses (Count)
system.cpu.dcache.WriteReq.misses::total         3513                       # number of WriteReq misses (Count)
system.cpu.dcache.WriteReq.missLatency::cpu.data    226138470                       # number of WriteReq miss ticks (Tick)
system.cpu.dcache.WriteReq.missLatency::total    226138470                       # number of WriteReq miss ticks (Tick)
system.cpu.dcache.WriteReq.accesses::cpu.data      1066192                       # number of WriteReq accesses(hits+misses) (Count)
system.cpu.dcache.WriteReq.accesses::total      1066192                       # number of WriteReq accesses(hits+misses) (Count)
system.cpu.dcache.WriteReq.missRate::cpu.data     0.003295                       # miss rate for WriteReq accesses (Ratio)
system.cpu.dcache.WriteReq.missRate::total     0.003295                       # miss rate for WriteReq accesses (Ratio)
system.cpu.dcache.WriteReq.avgMissLatency::cpu.data 64371.895816                       # average WriteReq miss latency ((Tick/Count))
system.cpu.dcache.WriteReq.avgMissLatency::total 64371.895816                       # average WriteReq miss latency ((Tick/Count))
system.cpu.dcache.WriteReq.mshrHits::cpu.data           51                       # number of WriteReq MSHR hits (Count)
system.cpu.dcache.WriteReq.mshrHits::total           51                       # number of WriteReq MSHR hits (Count)
system.cpu.dcache.WriteReq.mshrMisses::cpu.data         3462                       # number of WriteReq MSHR misses (Count)
system.cpu.dcache.WriteReq.mshrMisses::total         3462                       # number of WriteReq MSHR misses (Count)
system.cpu.dcache.WriteReq.mshrMissLatency::cpu.data    221076970                       # number of WriteReq MSHR miss ticks (Tick)
system.cpu.dcache.WriteReq.mshrMissLatency::total    221076970                       # number of WriteReq MSHR miss ticks (Tick)
system.cpu.dcache.WriteReq.mshrMissRate::cpu.data     0.003247                       # mshr miss rate for WriteReq accesses (Ratio)
system.cpu.dcache.WriteReq.mshrMissRate::total     0.003247                       # mshr miss rate for WriteReq accesses (Ratio)
system.cpu.dcache.WriteReq.avgMshrMissLatency::cpu.data 63858.165800                       # average WriteReq mshr miss latency ((Tick/Count))
system.cpu.dcache.WriteReq.avgMshrMissLatency::total 63858.165800                       # average WriteReq mshr miss latency ((Tick/Count))
system.cpu.dcache.power_state.pwrStateResidencyTicks::UNDEFINED   4757669000                       # Cumulative time (in ticks) in various power states (Tick)
system.cpu.dcache.tags.tagsInUse          1012.314139                       # Average ticks per tags in use ((Tick/Count))
system.cpu.dcache.tags.totalRefs              3107604                       # Total number of references to valid blocks. (Count)
system.cpu.dcache.tags.sampledRefs              21241                       # Sample count of references to valid blocks. (Count)
system.cpu.dcache.tags.avgRefs             146.302151                       # Average number of references to valid blocks. ((Count/Count))
system.cpu.dcache.tags.warmupTick              148000                       # The tick when the warmup percentage was hit. (Tick)
system.cpu.dcache.tags.occupancies::cpu.data  1012.314139                       # Average occupied blocks per tick, per requestor ((Count/Tick))
system.cpu.dcache.tags.avgOccs::cpu.data     0.988588                       # Average percentage of cache occupancy ((Ratio/Tick))
system.cpu.dcache.tags.avgOccs::total        0.988588                       # Average percentage of cache occupancy ((Ratio/Tick))
system.cpu.dcache.tags.occupanciesTaskId::1024         1024                       # Occupied blocks per task id (Count)
system.cpu.dcache.tags.ageTaskId_1024::0            6                       # Occupied blocks per task id, per block age (Count)
system.cpu.dcache.tags.ageTaskId_1024::1           47                       # Occupied blocks per task id, per block age (Count)
system.cpu.dcache.tags.ageTaskId_1024::2          373                       # Occupied blocks per task id, per block age (Count)
system.cpu.dcache.tags.ageTaskId_1024::3          598                       # Occupied blocks per task id, per block age (Count)
system.cpu.dcache.tags.ratioOccsTaskId::1024            1                       # Ratio of occupied blocks and all blocks, per task id (Ratio)
system.cpu.dcache.tags.tagAccesses            6310767                       # Number of tag accesses (Count)
system.cpu.dcache.tags.dataAccesses           6310767                       # Number of data accesses (Count)
system.cpu.dcache.tags.power_state.pwrStateResidencyTicks::UNDEFINED   4757669000                       # Cumulative time (in ticks) in various power states (Tick)
system.cpu.decode.idleCycles                  2569036                       # Number of cycles decode is idle (Cycle)
system.cpu.decode.blockedCycles               2622938                       # Number of cycles decode is blocked (Cycle)
system.cpu.decode.runCycles                   3184452                       # Number of cycles decode is running (Cycle)
system.cpu.decode.unblockCycles                345139                       # Number of cycles decode is unblocking (Cycle)
system.cpu.decode.squashCycles                  69903                       # Number of cycles decode is squashing (Cycle)
system.cpu.decode.branchResolved              1236097                       # Number of times decode resolved a branch (Count)
system.cpu.decode.branchMispred                  1197                       # Number of times decode detected a branch misprediction (Count)
system.cpu.decode.decodedInsts               22348957                       # Number of instructions handled by decode (Count)
system.cpu.decode.squashedInsts                  5205                       # Number of squashed instructions handled by decode (Count)
system.cpu.dtb_walker_cache.blockedCycles::no_mshrs            0                       # number of cycles access was blocked (Cycle)
system.cpu.dtb_walker_cache.blockedCycles::no_targets            0                       # number of cycles access was blocked (Cycle)
system.cpu.dtb_walker_cache.blockedCauses::no_mshrs            0                       # number of times access was blocked (Count)
system.cpu.dtb_walker_cache.blockedCauses::no_targets            0                       # number of times access was blocked (Count)
system.cpu.dtb_walker_cache.avgBlocked::no_mshrs          nan                       # average number of cycles each access was blocked ((Cycle/Count))
system.cpu.dtb_walker_cache.avgBlocked::no_targets          nan                       # average number of cycles each access was blocked ((Cycle/Count))
system.cpu.dtb_walker_cache.replacements            0                       # number of replacements (Count)
system.cpu.dtb_walker_cache.power_state.pwrStateResidencyTicks::UNDEFINED   4757669000                       # Cumulative time (in ticks) in various power states (Tick)
system.cpu.dtb_walker_cache.tags.tagsInUse            0                       # Average ticks per tags in use ((Tick/Count))
system.cpu.dtb_walker_cache.tags.totalRefs            0                       # Total number of references to valid blocks. (Count)
system.cpu.dtb_walker_cache.tags.sampledRefs            0                       # Sample count of references to valid blocks. (Count)
system.cpu.dtb_walker_cache.tags.avgRefs          nan                       # Average number of references to valid blocks. ((Count/Count))
system.cpu.dtb_walker_cache.tags.warmupTick            0                       # The tick when the warmup percentage was hit. (Tick)
system.cpu.dtb_walker_cache.tags.tagAccesses            0                       # Number of tag accesses (Count)
system.cpu.dtb_walker_cache.tags.dataAccesses            0                       # Number of data accesses (Count)
system.cpu.dtb_walker_cache.tags.power_state.pwrStateResidencyTicks::UNDEFINED   4757669000                       # Cumulative time (in ticks) in various power states (Tick)
system.cpu.fetch.icacheStallCycles            2682213                       # Number of cycles fetch is stalled on an Icache miss (Cycle)
system.cpu.fetch.insts                       12359080                       # Number of instructions fetch has processed (Count)
system.cpu.fetch.branches                     2616114                       # Number of branches that fetch encountered (Count)
system.cpu.fetch.predictedBranches            1399533                       # Number of branches that fetch has predicted taken (Count)
system.cpu.fetch.cycles                       6032947                       # Number of cycles fetch has run and was not squashing or blocked (Cycle)
system.cpu.fetch.squashCycles                  142122                       # Number of cycles fetch has spent squashing (Cycle)
system.cpu.fetch.miscStallCycles                  636                       # Number of cycles fetch has spent waiting on interrupts, or bad addresses, or out of MSHRs (Cycle)
system.cpu.fetch.pendingTrapStallCycles          4611                       # Number of stall cycles due to pending traps (Cycle)
system.cpu.fetch.cacheLines                   1746311                       # Number of cache lines fetched (Count)
system.cpu.fetch.icacheSquashes                 23665                       # Number of outstanding Icache misses that were squashed (Count)
system.cpu.fetch.nisnDist::samples            8791468                       # Number of instructions fetched each cycle (Total) (Count)
system.cpu.fetch.nisnDist::mean              2.611901                       # Number of instructions fetched each cycle (Total) (Count)
system.cpu.fetch.nisnDist::stdev             3.357419                       # Number of instructions fetched each cycle (Total) (Count)
system.cpu.fetch.nisnDist::underflows               0      0.00%      0.00% # Number of instructions fetched each cycle (Total) (Count)
system.cpu.fetch.nisnDist::0                  4932670     56.11%     56.11% # Number of instructions fetched each cycle (Total) (Count)
system.cpu.fetch.nisnDist::1                   220072      2.50%     58.61% # Number of instructions fetched each cycle (Total) (Count)
system.cpu.fetch.nisnDist::2                   267273      3.04%     61.65% # Number of instructions fetched each cycle (Total) (Count)
system.cpu.fetch.nisnDist::3                   294681      3.35%     65.00% # Number of instructions fetched each cycle (Total) (Count)
system.cpu.fetch.nisnDist::4                   447521      5.09%     70.09% # Number of instructions fetched each cycle (Total) (Count)
system.cpu.fetch.nisnDist::5                   293631      3.34%     73.43% # Number of instructions fetched each cycle (Total) (Count)
system.cpu.fetch.nisnDist::6                   222245      2.53%     75.96% # Number of instructions fetched each cycle (Total) (Count)
system.cpu.fetch.nisnDist::7                   174923      1.99%     77.95% # Number of instructions fetched each cycle (Total) (Count)
system.cpu.fetch.nisnDist::8                  1938452     22.05%    100.00% # Number of instructions fetched each cycle (Total) (Count)
system.cpu.fetch.nisnDist::overflows                0      0.00%    100.00% # Number of instructions fetched each cycle (Total) (Count)
system.cpu.fetch.nisnDist::min_value                0                       # Number of instructions fetched each cycle (Total) (Count)
system.cpu.fetch.nisnDist::max_value                8                       # Number of instructions fetched each cycle (Total) (Count)
system.cpu.fetch.nisnDist::total              8791468                       # Number of instructions fetched each cycle (Total) (Count)
system.cpu.fetch.branchRate                  0.274936                       # Number of branch fetches per cycle (Ratio)
system.cpu.fetch.rate                        1.298859                       # Number of inst fetches per cycle ((Count/Cycle))
system.cpu.icache.demandHits::cpu.inst        1708894                       # number of demand (read+write) hits (Count)
system.cpu.icache.demandHits::total           1708894                       # number of demand (read+write) hits (Count)
system.cpu.icache.overallHits::cpu.inst       1708894                       # number of overall hits (Count)
system.cpu.icache.overallHits::total          1708894                       # number of overall hits (Count)
system.cpu.icache.demandMisses::cpu.inst        37417                       # number of demand (read+write) misses (Count)
system.cpu.icache.demandMisses::total           37417                       # number of demand (read+write) misses (Count)
system.cpu.icache.overallMisses::cpu.inst        37417                       # number of overall misses (Count)
system.cpu.icache.overallMisses::total          37417                       # number of overall misses (Count)
system.cpu.icache.demandMissLatency::cpu.inst    962803500                       # number of demand (read+write) miss ticks (Tick)
system.cpu.icache.demandMissLatency::total    962803500                       # number of demand (read+write) miss ticks (Tick)
system.cpu.icache.overallMissLatency::cpu.inst    962803500                       # number of overall miss ticks (Tick)
system.cpu.icache.overallMissLatency::total    962803500                       # number of overall miss ticks (Tick)
system.cpu.icache.demandAccesses::cpu.inst      1746311                       # number of demand (read+write) accesses (Count)
system.cpu.icache.demandAccesses::total       1746311                       # number of demand (read+write) accesses (Count)
system.cpu.icache.overallAccesses::cpu.inst      1746311                       # number of overall (read+write) accesses (Count)
system.cpu.icache.overallAccesses::total      1746311                       # number of overall (read+write) accesses (Count)
system.cpu.icache.demandMissRate::cpu.inst     0.021426                       # miss rate for demand accesses (Ratio)
system.cpu.icache.demandMissRate::total      0.021426                       # miss rate for demand accesses (Ratio)
system.cpu.icache.overallMissRate::cpu.inst     0.021426                       # miss rate for overall accesses (Ratio)
system.cpu.icache.overallMissRate::total     0.021426                       # miss rate for overall accesses (Ratio)
system.cpu.icache.demandAvgMissLatency::cpu.inst 25731.712858                       # average overall miss latency in ticks ((Tick/Count))
system.cpu.icache.demandAvgMissLatency::total 25731.712858                       # average overall miss latency in ticks ((Tick/Count))
system.cpu.icache.overallAvgMissLatency::cpu.inst 25731.712858                       # average overall miss latency ((Tick/Count))
system.cpu.icache.overallAvgMissLatency::total 25731.712858                       # average overall miss latency ((Tick/Count))
system.cpu.icache.blockedCycles::no_mshrs           86                       # number of cycles access was blocked (Cycle)
system.cpu.icache.blockedCycles::no_targets            0                       # number of cycles access was blocked (Cycle)
system.cpu.icache.blockedCauses::no_mshrs            3                       # number of times access was blocked (Count)
system.cpu.icache.blockedCauses::no_targets            0                       # number of times access was blocked (Count)
system.cpu.icache.avgBlocked::no_mshrs      28.666667                       # average number of cycles each access was blocked ((Cycle/Count))
system.cpu.icache.avgBlocked::no_targets          nan                       # average number of cycles each access was blocked ((Cycle/Count))
system.cpu.icache.writebacks::writebacks        35290                       # number of writebacks (Count)
system.cpu.icache.writebacks::total             35290                       # number of writebacks (Count)
system.cpu.icache.demandMshrHits::cpu.inst         1615                       # number of demand (read+write) MSHR hits (Count)
system.cpu.icache.demandMshrHits::total          1615                       # number of demand (read+write) MSHR hits (Count)
system.cpu.icache.overallMshrHits::cpu.inst         1615                       # number of overall MSHR hits (Count)
system.cpu.icache.overallMshrHits::total         1615                       # number of overall MSHR hits (Count)
system.cpu.icache.demandMshrMisses::cpu.inst        35802                       # number of demand (read+write) MSHR misses (Count)
system.cpu.icache.demandMshrMisses::total        35802                       # number of demand (read+write) MSHR misses (Count)
system.cpu.icache.overallMshrMisses::cpu.inst        35802                       # number of overall MSHR misses (Count)
system.cpu.icache.overallMshrMisses::total        35802                       # number of overall MSHR misses (Count)
system.cpu.icache.demandMshrMissLatency::cpu.inst    886342500                       # number of demand (read+write) MSHR miss ticks (Tick)
system.cpu.icache.demandMshrMissLatency::total    886342500                       # number of demand (read+write) MSHR miss ticks (Tick)
system.cpu.icache.overallMshrMissLatency::cpu.inst    886342500                       # number of overall MSHR miss ticks (Tick)
system.cpu.icache.overallMshrMissLatency::total    886342500                       # number of overall MSHR miss ticks (Tick)
system.cpu.icache.demandMshrMissRate::cpu.inst     0.020502                       # mshr miss ratio for demand accesses (Ratio)
system.cpu.icache.demandMshrMissRate::total     0.020502                       # mshr miss ratio for demand accesses (Ratio)
system.cpu.icache.overallMshrMissRate::cpu.inst     0.020502                       # mshr miss ratio for overall accesses (Ratio)
system.cpu.icache.overallMshrMissRate::total     0.020502                       # mshr miss ratio for overall accesses (Ratio)
system.cpu.icache.demandAvgMshrMissLatency::cpu.inst 24756.787330                       # average overall mshr miss latency ((Tick/Count))
system.cpu.icache.demandAvgMshrMissLatency::total 24756.787330                       # average overall mshr miss latency ((Tick/Count))
system.cpu.icache.overallAvgMshrMissLatency::cpu.inst 24756.787330                       # average overall mshr miss latency ((Tick/Count))
system.cpu.icache.overallAvgMshrMissLatency::total 24756.787330                       # average overall mshr miss latency ((Tick/Count))
system.cpu.icache.replacements                  35290                       # number of replacements (Count)
system.cpu.icache.ReadReq.hits::cpu.inst      1708894                       # number of ReadReq hits (Count)
system.cpu.icache.ReadReq.hits::total         1708894                       # number of ReadReq hits (Count)
system.cpu.icache.ReadReq.misses::cpu.inst        37417                       # number of ReadReq misses (Count)
system.cpu.icache.ReadReq.misses::total         37417                       # number of ReadReq misses (Count)
system.cpu.icache.ReadReq.missLatency::cpu.inst    962803500                       # number of ReadReq miss ticks (Tick)
system.cpu.icache.ReadReq.missLatency::total    962803500                       # number of ReadReq miss ticks (Tick)
system.cpu.icache.ReadReq.accesses::cpu.inst      1746311                       # number of ReadReq accesses(hits+misses) (Count)
system.cpu.icache.ReadReq.accesses::total      1746311                       # number of ReadReq accesses(hits+misses) (Count)
system.cpu.icache.ReadReq.missRate::cpu.inst     0.021426                       # miss rate for ReadReq accesses (Ratio)
system.cpu.icache.ReadReq.missRate::total     0.021426                       # miss rate for ReadReq accesses (Ratio)
system.cpu.icache.ReadReq.avgMissLatency::cpu.inst 25731.712858                       # average ReadReq miss latency ((Tick/Count))
system.cpu.icache.ReadReq.avgMissLatency::total 25731.712858                       # average ReadReq miss latency ((Tick/Count))
system.cpu.icache.ReadReq.mshrHits::cpu.inst         1615                       # number of ReadReq MSHR hits (Count)
system.cpu.icache.ReadReq.mshrHits::total         1615                       # number of ReadReq MSHR hits (Count)
system.cpu.icache.ReadReq.mshrMisses::cpu.inst        35802                       # number of ReadReq MSHR misses (Count)
system.cpu.icache.ReadReq.mshrMisses::total        35802                       # number of ReadReq MSHR misses (Count)
system.cpu.icache.ReadReq.mshrMissLatency::cpu.inst    886342500                       # number of ReadReq MSHR miss ticks (Tick)
system.cpu.icache.ReadReq.mshrMissLatency::total    886342500                       # number of ReadReq MSHR miss ticks (Tick)
system.cpu.icache.ReadReq.mshrMissRate::cpu.inst     0.020502                       # mshr miss rate for ReadReq accesses (Ratio)
system.cpu.icache.ReadReq.mshrMissRate::total     0.020502                       # mshr miss rate for ReadReq accesses (Ratio)
system.cpu.icache.ReadReq.avgMshrMissLatency::cpu.inst 24756.787330                       # average ReadReq mshr miss latency ((Tick/Count))
system.cpu.icache.ReadReq.avgMshrMissLatency::total 24756.787330                       # average ReadReq mshr miss latency ((Tick/Count))
system.cpu.icache.power_state.pwrStateResidencyTicks::UNDEFINED   4757669000                       # Cumulative time (in ticks) in various power states (Tick)
system.cpu.icache.tags.tagsInUse           487.078589                       # Average ticks per tags in use ((Tick/Count))
system.cpu.icache.tags.totalRefs              1744696                       # Total number of references to valid blocks. (Count)
system.cpu.icache.tags.sampledRefs              35802                       # Sample count of references to valid blocks. (Count)
system.cpu.icache.tags.avgRefs              48.731803                       # Average number of references to valid blocks. ((Count/Count))
system.cpu.icache.tags.warmupTick               77000                       # The tick when the warmup percentage was hit. (Tick)
system.cpu.icache.tags.occupancies::cpu.inst   487.078589                       # Average occupied blocks per tick, per requestor ((Count/Tick))
system.cpu.icache.tags.avgOccs::cpu.inst     0.951325                       # Average percentage of cache occupancy ((Ratio/Tick))
system.cpu.icache.tags.avgOccs::total        0.951325                       # Average percentage of cache occupancy ((Ratio/Tick))
system.cpu.icache.tags.occupanciesTaskId::1024          506                       # Occupied blocks per task id (Count)
system.cpu.icache.tags.ageTaskId_1024::0            4                       # Occupied blocks per task id, per block age (Count)
system.cpu.icache.tags.ageTaskId_1024::2           12                       # Occupied blocks per task id, per block age (Count)
system.cpu.icache.tags.ageTaskId_1024::3          490                       # Occupied blocks per task id, per block age (Count)
system.cpu.icache.tags.ratioOccsTaskId::1024     0.988281                       # Ratio of occupied blocks and all blocks, per task id (Ratio)
system.cpu.icache.tags.tagAccesses            3528424                       # Number of tag accesses (Count)
system.cpu.icache.tags.dataAccesses           3528424                       # Number of data accesses (Count)
system.cpu.icache.tags.power_state.pwrStateResidencyTicks::UNDEFINED   4757669000                       # Cumulative time (in ticks) in various power states (Tick)
system.cpu.iew.idleCycles                           0                       # Number of cycles IEW is idle (Cycle)
system.cpu.iew.squashCycles                     69903                       # Number of cycles IEW is squashing (Cycle)
system.cpu.iew.blockCycles                    1305981                       # Number of cycles IEW is blocking (Cycle)
system.cpu.iew.unblockCycles                    97753                       # Number of cycles IEW is unblocking (Cycle)
system.cpu.iew.dispatchedInsts               21540358                       # Number of instructions dispatched to IQ (Count)
system.cpu.iew.dispSquashedInsts                 4811                       # Number of squashed instructions skipped by dispatch (Count)
system.cpu.iew.dispLoadInsts                  2546227                       # Number of dispatched load instructions (Count)
system.cpu.iew.dispStoreInsts                 1179761                       # Number of dispatched store instructions (Count)
system.cpu.iew.dispNonSpecInsts                   188                       # Number of dispatched non-speculative instructions (Count)
system.cpu.iew.iqFullEvents                      7251                       # Number of times the IQ has become full, causing a stall (Count)
system.cpu.iew.lsqFullEvents                    83220                       # Number of times the LSQ has become full, causing a stall (Count)
system.cpu.iew.memOrderViolationEvents            323                       # Number of memory order violations (Count)
system.cpu.iew.predictedTakenIncorrect          25482                       # Number of branches that were predicted taken incorrectly (Count)
system.cpu.iew.predictedNotTakenIncorrect        35201                       # Number of branches that were predicted not taken incorrectly (Count)
system.cpu.iew.branchMispredicts                60683                       # Number of branch mispredicts detected at execute (Count)
system.cpu.iew.instsToCommit                 20352982                       # Cumulative count of insts sent to commit (Count)
system.cpu.iew.writebackCount                20319941                       # Cumulative count of insts written-back (Count)
system.cpu.iew.producerInst                  15378552                       # Number of instructions producing a value (Count)
system.cpu.iew.consumerInst                  26685675                       # Number of instructions consuming a value (Count)
system.cpu.iew.wbRate                        2.135493                       # Insts written-back per cycle ((Count/Cycle))
system.cpu.iew.wbFanout                      0.576285                       # Average fanout of values written-back ((Count/Count))
system.cpu.interrupts.clk_domain.clock           8000                       # Clock period in ticks (Tick)
system.cpu.itb_walker_cache.blockedCycles::no_mshrs            0                       # number of cycles access was blocked (Cycle)
system.cpu.itb_walker_cache.blockedCycles::no_targets            0                       # number of cycles access was blocked (Cycle)
system.cpu.itb_walker_cache.blockedCauses::no_mshrs            0                       # number of times access was blocked (Count)
system.cpu.itb_walker_cache.blockedCauses::no_targets            0                       # number of times access was blocked (Count)
system.cpu.itb_walker_cache.avgBlocked::no_mshrs          nan                       # average number of cycles each access was blocked ((Cycle/Count))
system.cpu.itb_walker_cache.avgBlocked::no_targets          nan                       # average number of cycles each access was blocked ((Cycle/Count))
system.cpu.itb_walker_cache.replacements            0                       # number of replacements (Count)
system.cpu.itb_walker_cache.power_state.pwrStateResidencyTicks::UNDEFINED   4757669000                       # Cumulative time (in ticks) in various power states (Tick)
system.cpu.itb_walker_cache.tags.tagsInUse            0                       # Average ticks per tags in use ((Tick/Count))
system.cpu.itb_walker_cache.tags.totalRefs            0                       # Total number of references to valid blocks. (Count)
system.cpu.itb_walker_cache.tags.sampledRefs            0                       # Sample count of references to valid blocks. (Count)
system.cpu.itb_walker_cache.tags.avgRefs          nan                       # Average number of references to valid blocks. ((Count/Count))
system.cpu.itb_walker_cache.tags.warmupTick            0                       # The tick when the warmup percentage was hit. (Tick)
system.cpu.itb_walker_cache.tags.tagAccesses            0                       # Number of tag accesses (Count)
system.cpu.itb_walker_cache.tags.dataAccesses            0                       # Number of data accesses (Count)
system.cpu.itb_walker_cache.tags.power_state.pwrStateResidencyTicks::UNDEFINED   4757669000                       # Cumulative time (in ticks) in various power states (Tick)
system.cpu.lsq0.forwLoads                      322615                       # Number of loads that had data forwarded from stores (Count)
system.cpu.lsq0.squashedLoads                  363488                       # Number of loads squashed (Count)
system.cpu.lsq0.ignoredResponses                  586                       # Number of memory responses ignored because the instruction is squashed (Count)
system.cpu.lsq0.memOrderViolation                 323                       # Number of memory ordering violations (Count)
system.cpu.lsq0.squashedStores                 113576                       # Number of stores squashed (Count)
system.cpu.lsq0.rescheduledLoads                 1512                       # Number of loads that were rescheduled (Count)
system.cpu.lsq0.blockedByCache                    561                       # Number of times an access to memory failed due to the cache being blocked (Count)
system.cpu.lsq0.loadToUse::samples            2182728                       # Distribution of cycle latency between the first time a load is issued and its completion (Unspecified)
system.cpu.lsq0.loadToUse::mean              5.728668                       # Distribution of cycle latency between the first time a load is issued and its completion (Unspecified)
system.cpu.lsq0.loadToUse::stdev            20.956197                       # Distribution of cycle latency between the first time a load is issued and its completion (Unspecified)
system.cpu.lsq0.loadToUse::0-9                2137113     97.91%     97.91% # Distribution of cycle latency between the first time a load is issued and its completion (Unspecified)
system.cpu.lsq0.loadToUse::10-19                 1345      0.06%     97.97% # Distribution of cycle latency between the first time a load is issued and its completion (Unspecified)
system.cpu.lsq0.loadToUse::20-29                  488      0.02%     97.99% # Distribution of cycle latency between the first time a load is issued and its completion (Unspecified)
system.cpu.lsq0.loadToUse::30-39                  286      0.01%     98.01% # Distribution of cycle latency between the first time a load is issued and its completion (Unspecified)
system.cpu.lsq0.loadToUse::40-49                  291      0.01%     98.02% # Distribution of cycle latency between the first time a load is issued and its completion (Unspecified)
system.cpu.lsq0.loadToUse::50-59                  349      0.02%     98.04% # Distribution of cycle latency between the first time a load is issued and its completion (Unspecified)
system.cpu.lsq0.loadToUse::60-69                  496      0.02%     98.06% # Distribution of cycle latency between the first time a load is issued and its completion (Unspecified)
system.cpu.lsq0.loadToUse::70-79                 1388      0.06%     98.12% # Distribution of cycle latency between the first time a load is issued and its completion (Unspecified)
[...]
system.mem_ctrls.dram.perBankRdBursts::15         1296                       # Per bank write bursts (Count)
system.mem_ctrls.dram.perBankWrBursts::0          263                       # Per bank write bursts (Count)
system.mem_ctrls.dram.perBankWrBursts::1          252                       # Per bank write bursts (Count)
system.mem_ctrls.dram.perBankWrBursts::2          327                       # Per bank write bursts (Count)
system.mem_ctrls.dram.perBankWrBursts::3          524                       # Per bank write bursts (Count)
system.mem_ctrls.dram.perBankWrBursts::4          402                       # Per bank write bursts (Count)
system.mem_ctrls.dram.perBankWrBursts::5          153                       # Per bank write bursts (Count)
system.mem_ctrls.dram.perBankWrBursts::6          315                       # Per bank write bursts (Count)
system.mem_ctrls.dram.perBankWrBursts::7          299                       # Per bank write bursts (Count)
system.mem_ctrls.dram.perBankWrBursts::8          267                       # Per bank write bursts (Count)
system.mem_ctrls.dram.perBankWrBursts::9          492                       # Per bank write bursts (Count)
system.mem_ctrls.dram.perBankWrBursts::10          397                       # Per bank write bursts (Count)
system.mem_ctrls.dram.perBankWrBursts::11          276                       # Per bank write bursts (Count)
system.mem_ctrls.dram.perBankWrBursts::12          265                       # Per bank write bursts (Count)
system.mem_ctrls.dram.perBankWrBursts::13          163                       # Per bank write bursts (Count)
system.mem_ctrls.dram.perBankWrBursts::14          256                       # Per bank write bursts (Count)
system.mem_ctrls.dram.perBankWrBursts::15          253                       # Per bank write bursts (Count)
system.mem_ctrls.dram.totQLat               412624250                       # Total ticks spent queuing (Tick)
system.mem_ctrls.dram.totBusLat             115795000                       # Total ticks spent in databus transfers (Tick)
system.mem_ctrls.dram.totMemAccLat          846855500                       # Total ticks spent from burst creation until serviced by the DRAM (Tick)
system.mem_ctrls.dram.avgQLat                17817.01                       # Average queueing delay per DRAM burst ((Tick/Count))
system.mem_ctrls.dram.avgBusLat               5000.00                       # Average bus latency per DRAM burst ((Tick/Count))
system.mem_ctrls.dram.avgMemAccLat           36567.01                       # Average memory access latency per DRAM burst ((Tick/Count))
system.mem_ctrls.dram.readRowHits               11050                       # Number of row buffer hits during reads (Count)
system.mem_ctrls.dram.writeRowHits               3621                       # Number of row buffer hits during writes (Count)
system.mem_ctrls.dram.readRowHitRate            47.71                       # Row buffer hit rate for reads (Ratio)
system.mem_ctrls.dram.writeRowHitRate           73.84                       # Row buffer hit rate for writes (Ratio)
system.mem_ctrls.dram.bytesPerActivate::samples        13392                       # Bytes accessed per row activation (Byte)
system.mem_ctrls.dram.bytesPerActivate::mean   134.112306                       # Bytes accessed per row activation (Byte)
system.mem_ctrls.dram.bytesPerActivate::gmean    98.218742                       # Bytes accessed per row activation (Byte)
system.mem_ctrls.dram.bytesPerActivate::stdev   162.595252                       # Bytes accessed per row activation (Byte)
system.mem_ctrls.dram.bytesPerActivate::0-127         8291     61.91%     61.91% # Bytes accessed per row activation (Byte)
system.mem_ctrls.dram.bytesPerActivate::128-255         3616     27.00%     88.91% # Bytes accessed per row activation (Byte)
system.mem_ctrls.dram.bytesPerActivate::256-383          647      4.83%     93.74% # Bytes accessed per row activation (Byte)
system.mem_ctrls.dram.bytesPerActivate::384-511          289      2.16%     95.90% # Bytes accessed per row activation (Byte)
system.mem_ctrls.dram.bytesPerActivate::512-639          132      0.99%     96.89% # Bytes accessed per row activation (Byte)
system.mem_ctrls.dram.bytesPerActivate::640-767          104      0.78%     97.66% # Bytes accessed per row activation (Byte)
system.mem_ctrls.dram.bytesPerActivate::768-895           58      0.43%     98.10% # Bytes accessed per row activation (Byte)
system.mem_ctrls.dram.bytesPerActivate::896-1023           34      0.25%     98.35% # Bytes accessed per row activation (Byte)
system.mem_ctrls.dram.bytesPerActivate::1024-1151          221      1.65%    100.00% # Bytes accessed per row activation (Byte)
system.mem_ctrls.dram.bytesPerActivate::total        13392                       # Bytes accessed per row activation (Byte)
system.mem_ctrls.dram.bytesRead               1482176                       # Total bytes read (Byte)
system.mem_ctrls.dram.bytesWritten             313856                       # Total bytes written (Byte)
system.mem_ctrls.dram.avgRdBW              311.534073                       # Average DRAM read bandwidth in MiBytes/s ((Byte/Second))
system.mem_ctrls.dram.avgWrBW               65.968440                       # Average DRAM write bandwidth in MiBytes/s ((Byte/Second))
system.mem_ctrls.dram.peakBW                 12800.00                       # Theoretical peak bandwidth in MiByte/s ((Byte/Second))
system.mem_ctrls.dram.busUtil                    2.95                       # Data bus utilization in percentage (Ratio)
system.mem_ctrls.dram.busUtilRead                2.43                       # Data bus utilization in percentage for reads (Ratio)
system.mem_ctrls.dram.busUtilWrite               0.52                       # Data bus utilization in percentage for writes (Ratio)
system.mem_ctrls.dram.pageHitRate               52.28                       # Row buffer hit rate, read and write combined (Ratio)
system.mem_ctrls.dram.power_state.pwrStateResidencyTicks::UNDEFINED   4757669000                       # Cumulative time (in ticks) in various power states (Tick)
system.mem_ctrls.dram.rank0.actEnergy        50772540                       # Energy for activate commands per rank (pJ) (Joule)
system.mem_ctrls.dram.rank0.preEnergy        26986245                       # Energy for precharge commands per rank (pJ) (Joule)
system.mem_ctrls.dram.rank0.readEnergy       87129420                       # Energy for read commands per rank (pJ) (Joule)
system.mem_ctrls.dram.rank0.writeEnergy      13232700                       # Energy for write commands per rank (pJ) (Joule)
system.mem_ctrls.dram.rank0.refreshEnergy 375545040.000000                       # Energy for refresh commands per rank (pJ) (Joule)
system.mem_ctrls.dram.rank0.actBackEnergy   1861218150                       # Energy for active background per rank (pJ) (Joule)
system.mem_ctrls.dram.rank0.preBackEnergy    259603680                       # Energy for precharge background per rank (pJ) (Joule)
system.mem_ctrls.dram.rank0.actPowerDownEnergy            0                       # Energy for active power-down per rank (pJ) (Joule)
system.mem_ctrls.dram.rank0.prePowerDownEnergy            0                       # Energy for precharge power-down per rank (pJ) (Joule)
system.mem_ctrls.dram.rank0.selfRefreshEnergy            0                       # Energy for self refresh per rank (pJ) (Joule)
system.mem_ctrls.dram.rank0.totalEnergy    2674487775                       # Total energy per rank (pJ) (Joule)
system.mem_ctrls.dram.rank0.averagePower   562.142464                       # Core power per rank (mW) (Watt)
system.mem_ctrls.dram.rank0.totalIdleTime            0                       # Total Idle time Per DRAM Rank (Tick)
system.mem_ctrls.dram.rank0.pwrStateTime::IDLE    658007500                       # Time in different power states (Tick)
system.mem_ctrls.dram.rank0.pwrStateTime::REF    158856500                       # Time in different power states (Tick)
system.mem_ctrls.dram.rank0.pwrStateTime::SREF            0                       # Time in different power states (Tick)
system.mem_ctrls.dram.rank0.pwrStateTime::PRE_PDN            0                       # Time in different power states (Tick)
system.mem_ctrls.dram.rank0.pwrStateTime::ACT   3940805000                       # Time in different power states (Tick)
system.mem_ctrls.dram.rank0.pwrStateTime::ACT_PDN            0                       # Time in different power states (Tick)
system.mem_ctrls.dram.rank1.actEnergy        44846340                       # Energy for activate commands per rank (pJ) (Joule)
system.mem_ctrls.dram.rank1.preEnergy        23836395                       # Energy for precharge commands per rank (pJ) (Joule)
system.mem_ctrls.dram.rank1.readEnergy       78225840                       # Energy for read commands per rank (pJ) (Joule)
system.mem_ctrls.dram.rank1.writeEnergy      12366180                       # Energy for write commands per rank (pJ) (Joule)
system.mem_ctrls.dram.rank1.refreshEnergy 375545040.000000                       # Energy for refresh commands per rank (pJ) (Joule)
system.mem_ctrls.dram.rank1.actBackEnergy   1592409000                       # Energy for active background per rank (pJ) (Joule)
system.mem_ctrls.dram.rank1.preBackEnergy    485969280                       # Energy for precharge background per rank (pJ) (Joule)
system.mem_ctrls.dram.rank1.actPowerDownEnergy            0                       # Energy for active power-down per rank (pJ) (Joule)
system.mem_ctrls.dram.rank1.prePowerDownEnergy            0                       # Energy for precharge power-down per rank (pJ) (Joule)
system.mem_ctrls.dram.rank1.selfRefreshEnergy            0                       # Energy for self refresh per rank (pJ) (Joule)
system.mem_ctrls.dram.rank1.totalEnergy    2613198075                       # Total energy per rank (pJ) (Joule)
system.mem_ctrls.dram.rank1.averagePower   549.260168                       # Core power per rank (mW) (Watt)
system.mem_ctrls.dram.rank1.totalIdleTime            0                       # Total Idle time Per DRAM Rank (Tick)
system.mem_ctrls.dram.rank1.pwrStateTime::IDLE   1248473750                       # Time in different power states (Tick)
system.mem_ctrls.dram.rank1.pwrStateTime::REF    158856500                       # Time in different power states (Tick)
system.mem_ctrls.dram.rank1.pwrStateTime::SREF            0                       # Time in different power states (Tick)
system.mem_ctrls.dram.rank1.pwrStateTime::PRE_PDN            0                       # Time in different power states (Tick)
system.mem_ctrls.dram.rank1.pwrStateTime::ACT   3350338750                       # Time in different power states (Tick)
system.mem_ctrls.dram.rank1.pwrStateTime::ACT_PDN            0                       # Time in different power states (Tick)
system.mem_ctrls.power_state.pwrStateResidencyTicks::UNDEFINED   4757669000                       # Cumulative time (in ticks) in various power states (Tick)
system.membus.transDist::ReadResp               53579                       # Transaction distribution (Count)
system.membus.transDist::WritebackDirty          3104                       # Transaction distribution (Count)
system.membus.transDist::WritebackClean         35290                       # Transaction distribution (Count)
system.membus.transDist::CleanEvict             17113                       # Transaction distribution (Count)
system.membus.transDist::UpgradeReq                 6                       # Transaction distribution (Count)
system.membus.transDist::ReadExReq               3464                       # Transaction distribution (Count)
system.membus.transDist::ReadExResp              3464                       # Transaction distribution (Count)
system.membus.transDist::ReadCleanReq           35802                       # Transaction distribution (Count)
system.membus.transDist::ReadSharedReq          17777                       # Transaction distribution (Count)
system.membus.pktCount_system.cpu.icache.mem_side_port::system.mem_ctrls.port       106888                       # Packet count per connected requestor and responder (Count)
system.membus.pktCount_system.cpu.icache.mem_side_port::total       106888                       # Packet count per connected requestor and responder (Count)
system.membus.pktCount_system.cpu.dcache.mem_side_port::system.mem_ctrls.port        62705                       # Packet count per connected requestor and responder (Count)
system.membus.pktCount_system.cpu.dcache.mem_side_port::total        62705                       # Packet count per connected requestor and responder (Count)
system.membus.pktCount::total                  169593                       # Packet count per connected requestor and responder (Count)
system.membus.pktSize_system.cpu.icache.mem_side_port::system.mem_ctrls.port      4549504                       # Cumulative packet size per connected requestor and responder (Byte)
system.membus.pktSize_system.cpu.icache.mem_side_port::total      4549504                       # Cumulative packet size per connected requestor and responder (Byte)
system.membus.pktSize_system.cpu.dcache.mem_side_port::system.mem_ctrls.port      1558080                       # Cumulative packet size per connected requestor and responder (Byte)
system.membus.pktSize_system.cpu.dcache.mem_side_port::total      1558080                       # Cumulative packet size per connected requestor and responder (Byte)
system.membus.pktSize::total                  6107584                       # Cumulative packet size per connected requestor and responder (Byte)
system.membus.snoops                                6                       # Total snoops (Count)
system.membus.snoopTraffic                        384                       # Total snoop traffic (Byte)
system.membus.snoopFanout::samples              57049                       # Request fanout histogram (Count)
system.membus.snoopFanout::mean              0.000351                       # Request fanout histogram (Count)
system.membus.snoopFanout::stdev             0.018721                       # Request fanout histogram (Count)
system.membus.snoopFanout::underflows               0      0.00%      0.00% # Request fanout histogram (Count)
system.membus.snoopFanout::0                    57029     99.96%     99.96% # Request fanout histogram (Count)
system.membus.snoopFanout::1                       20      0.04%    100.00% # Request fanout histogram (Count)
system.membus.snoopFanout::2                        0      0.00%    100.00% # Request fanout histogram (Count)
system.membus.snoopFanout::3                        0      0.00%    100.00% # Request fanout histogram (Count)
system.membus.snoopFanout::4                        0      0.00%    100.00% # Request fanout histogram (Count)
system.membus.snoopFanout::overflows                0      0.00%    100.00% # Request fanout histogram (Count)
system.membus.snoopFanout::min_value                0                       # Request fanout histogram (Count)
system.membus.snoopFanout::max_value                1                       # Request fanout histogram (Count)
system.membus.snoopFanout::total                57049                       # Request fanout histogram (Count)
system.membus.power_state.pwrStateResidencyTicks::UNDEFINED   4757669000                       # Cumulative time (in ticks) in various power states (Tick)
system.membus.reqLayer2.occupancy           276965500                       # Layer occupancy (ticks) (Tick)
system.membus.reqLayer2.utilization               0.1                       # Layer utilization (Ratio)
system.membus.respLayer1.occupancy          179667000                       # Layer occupancy (ticks) (Tick)
system.membus.respLayer1.utilization              0.0                       # Layer utilization (Ratio)
system.membus.respLayer2.occupancy          115647750                       # Layer occupancy (ticks) (Tick)
system.membus.respLayer2.utilization              0.0                       # Layer utilization (Ratio)
system.membus.snoop_filter.totRequests         112556                       # Total number of requests made to the snoop filter. (Count)
system.membus.snoop_filter.hitSingleRequests        55509                       # Number of requests hitting in the snoop filter with a single holder of the requested data. (Count)
system.membus.snoop_filter.hitMultiRequests           18                       # Number of requests hitting in the snoop filter with multiple (>1) holders of the requested data. (Count)
system.membus.snoop_filter.totSnoops                0                       # Total number of snoops made to the snoop filter. (Count)
system.membus.snoop_filter.hitSingleSnoops            0                       # Number of snoops hitting in the snoop filter with a single holder of the requested data. (Count)
system.membus.snoop_filter.hitMultiSnoops            0                       # Number of snoops hitting in the snoop filter with multiple (>1) holders of the requested data. (Count)
system.voltage_domain.voltage                       1                       # Voltage in Volts (Volt)
system.workload.inst.arm                            0                       # number of arm instructions executed (Count)
system.workload.inst.quiesce                        0                       # number of quiesce instructions executed (Count)
system.cpu.loadValPred.constant_verification_unit.constLoadHits        12799                       # Number of loads marked constant that hit in the CVU CAM (Unspecified)
system.cpu.loadValPred.constant_verification_unit.constLoadMisses        82569                       # Number of loads marked constant that missed in the CVU CAM (Unspecified)
system.cpu.loadValPred.constant_verification_unit.numCAMReplacements        15233                       # Number of CVU CAM entries replaced (Unspecified)
system.cpu.loadValPred.constant_verification_unit.numLoadAccesses        95368                       # Number of loads marked constant which accessed the CVU (Unspecified)
system.cpu.loadValPred.constant_verification_unit.numStoreAccesses      1129477                       # Number of store instructions which accessed the CVU (Unspecified)
system.cpu.loadValPred.constant_verification_unit.numStoreHits        32750                       # Number of stores that hit in the CVU CAM (Unspecified)
system.cpu.loadValPred.constant_verification_unit.numStoreMisses      1096727                       # Number of stores that missed in the CVU CAM (Unspecified)
system.cpu.loadValPred.numConstLoads            49482                       # Number of loads classified as constant (Unspecified)
system.cpu.loadValPred.numConstLoadsCorrect        12799                       # Number of constant loads correctly predicted (Unspecified)
system.cpu.loadValPred.numConstLoadsMispredicted        82569                       # Number of constant loads incorrectly predicted (Unspecified)
system.cpu.loadValPred.numConstValOne            2992                       # Number of constant loads with value 1 (Unspecified)
system.cpu.loadValPred.numConstValZero           6767                       # Number of constant loads with value 0 (Unspecified)
system.cpu.loadValPred.numPredictableLoads       500122                       # Number of loads classified as predictable (Unspecified)
system.cpu.loadValPred.numPredictableLoadsCorrect       392592                       # Number of loads correctly classified as predictable (Unspecified)
system.cpu.loadValPred.numPredictableLoadsIncorrect        73678                       # Number of loads incorrectly classified as predictable (Unspecified)
system.cpu.loadValPred.totalLoads             2546227                       # Total loads processed by the Load value predictor (Unspecified)

---------- End Simulation Statistics   ----------
