
---------- Begin Simulation Statistics ----------
simSeconds                                   0.088287                       # Number of seconds simulated (Second)
simTicks                                  88286915500                       # Number of ticks simulated (Tick)
finalTick                                 88286915500                       # Number of ticks from beginning of simulation (restored from checkpoints and never reset) (Tick)
simFreq                                  1000000000000                       # The number of ticks per simulated second ((Tick/Second))
hostSeconds                                    327.38                       # Real time elapsed on the host (Second)
hostTickRate                                269676268                       # The number of ticks simulated per host second (ticks/s) ((Tick/Second))
hostMemory                                    8717108                       # Number of bytes of host memory used (Byte)
simInsts                                     10000000                       # Number of instructions simulated (Count)
simOps                                       19429302                       # Number of ops (including micro ops) simulated (Count)
hostInstRate                                    30545                       # Simulator instruction rate (inst/s) ((Count/Second))
hostOpRate                                      59348                       # Simulator op (including micro ops) rate (op/s) ((Count/Second))
system.clk_domain.clock                          1000                       # Clock period in ticks (Tick)
system.cpu.numCycles                        176573832                       # Number of cpu cycles simulated (Cycle)
system.cpu.numWorkItemsStarted                      0                       # Number of work items this cpu started (Count)
system.cpu.numWorkItemsCompleted                    0                       # Number of work items this cpu completed (Count)
system.cpu.instsAdded                        21350331                       # Number of instructions added to the IQ (excludes non-spec) (Count)
system.cpu.nonSpecInstsAdded                       79                       # Number of non-speculative instructions added to the IQ (Count)
system.cpu.instsIssued                       20934977                       # Number of instructions issued (Count)
system.cpu.squashedInstsIssued                   1328                       # Number of squashed instructions issued (Count)
system.cpu.squashedInstsExamined              1921104                       # Number of squashed instructions iterated over during squash; mainly for profiling (Count)
system.cpu.squashedOperandsExamined           4755130                       # Number of squashed operands that are examined and possibly removed from graph (Count)
system.cpu.squashedNonSpecRemoved                  43                       # Number of squashed non-spec instructions that were removed (Count)
system.cpu.numIssuedDist::samples           176524954                       # Number of insts issued each cycle (Count)
system.cpu.numIssuedDist::mean               0.118595                       # Number of insts issued each cycle (Count)
system.cpu.numIssuedDist::stdev              0.481983                       # Number of insts issued each cycle (Count)
system.cpu.numIssuedDist::underflows                0      0.00%      0.00% # Number of insts issued each cycle (Count)
system.cpu.numIssuedDist::0                 161144310     91.29%     91.29% # Number of insts issued each cycle (Count)
system.cpu.numIssuedDist::1                  13071276      7.40%     98.69% # Number of insts issued each cycle (Count)
system.cpu.numIssuedDist::2                    587081      0.33%     99.02% # Number of insts issued each cycle (Count)
system.cpu.numIssuedDist::3                    735778      0.42%     99.44% # Number of insts issued each cycle (Count)
system.cpu.numIssuedDist::4                    737140      0.42%     99.86% # Number of insts issued each cycle (Count)
system.cpu.numIssuedDist::5                     70631      0.04%     99.90% # Number of insts issued each cycle (Count)
system.cpu.numIssuedDist::6                     95577      0.05%     99.95% # Number of insts issued each cycle (Count)
system.cpu.numIssuedDist::7                     58260      0.03%     99.99% # Number of insts issued each cycle (Count)
system.cpu.numIssuedDist::8                     24901      0.01%    100.00% # Number of insts issued each cycle (Count)
system.cpu.numIssuedDist::overflows                 0      0.00%    100.00% # Number of insts issued each cycle (Count)
system.cpu.numIssuedDist::min_value                 0                       # Number of insts issued each cycle (Count)
system.cpu.numIssuedDist::max_value                 8                       # Number of insts issued each cycle (Count)
system.cpu.numIssuedDist::total             176524954                       # Number of insts issued each cycle (Count)
system.cpu.statFuBusy::No_OpClass                   0      0.00%      0.00% # attempts to use FU when none available (Count)
system.cpu.statFuBusy::IntAlu                    6389      9.26%      9.26% # attempts to use FU when none available (Count)
system.cpu.statFuBusy::IntMult                      0      0.00%      9.26% # attempts to use FU when none available (Count)
system.cpu.statFuBusy::IntDiv                       0      0.00%      9.26% # attempts to use FU when none available (Count)
system.cpu.statFuBusy::FloatAdd                     0      0.00%      9.26% # attempts to use FU when none available (Count)
system.cpu.statFuBusy::FloatCmp                     0      0.00%      9.26% # attempts to use FU when none available (Count)
system.cpu.statFuBusy::FloatCvt                     0      0.00%      9.26% # attempts to use FU when none available (Count)
system.cpu.statFuBusy::FloatMult                    0      0.00%      9.26% # attempts to use FU when none available (Count)
system.cpu.statFuBusy::FloatMultAcc                 0      0.00%      9.26% # attempts to use FU when none available (Count)
system.cpu.statFuBusy::FloatDiv                     0      0.00%      9.26% # attempts to use FU when none available (Count)
system.cpu.statFuBusy::FloatMisc                    0      0.00%      9.26% # attempts to use FU when none available (Count)
system.cpu.statFuBusy::FloatSqrt                    0      0.00%      9.26% # attempts to use FU when none available (Count)
system.cpu.statFuBusy::SimdAdd                      0      0.00%      9.26% # attempts to use FU when none available (Count)
system.cpu.statFuBusy::SimdAddAcc                   0      0.00%      9.26% # attempts to use FU when none available (Count)
system.cpu.statFuBusy::SimdAlu                      0      0.00%      9.26% # attempts to use FU when none available (Count)
system.cpu.statFuBusy::SimdCmp                      0      0.00%      9.26% # attempts to use FU when none available (Count)
system.cpu.statFuBusy::SimdCvt                      0      0.00%      9.26% # attempts to use FU when none available (Count)
system.cpu.statFuBusy::SimdMisc                     0      0.00%      9.26% # attempts to use FU when none available (Count)
system.cpu.statFuBusy::SimdMult                     0      0.00%      9.26% # attempts to use FU when none available (Count)
system.cpu.statFuBusy::SimdMultAcc                  0      0.00%      9.26% # attempts to use FU when none available (Count)
system.cpu.statFuBusy::SimdShift                    0      0.00%      9.26% # attempts to use FU when none available (Count)
system.cpu.statFuBusy::SimdShiftAcc                 0      0.00%      9.26% # attempts to use FU when none available (Count)
system.cpu.statFuBusy::SimdDiv                      0      0.00%      9.26% # attempts to use FU when none available (Count)
system.cpu.statFuBusy::SimdSqrt                     0      0.00%      9.26% # attempts to use FU when none available (Count)
system.cpu.statFuBusy::SimdFloatAdd                 0      0.00%      9.26% # attempts to use FU when none available (Count)
system.cpu.statFuBusy::SimdFloatAlu                 0      0.00%      9.26% # attempts to use FU when none available (Count)
system.cpu.statFuBusy::SimdFloatCmp                 0      0.00%      9.26% # attempts to use FU when none available (Count)
system.cpu.statFuBusy::SimdFloatCvt                 0      0.00%      9.26% # attempts to use FU when none available (Count)
system.cpu.statFuBusy::SimdFloatDiv                 0      0.00%      9.26% # attempts to use FU when none available (Count)
system.cpu.statFuBusy::SimdFloatMisc                0      0.00%      9.26% # attempts to use FU when none available (Count)
system.cpu.statFuBusy::SimdFloatMult                0      0.00%      9.26% # attempts to use FU when none available (Count)
system.cpu.statFuBusy::SimdFloatMultAcc             0      0.00%      9.26% # attempts to use FU when none available (Count)
system.cpu.statFuBusy::SimdFloatSqrt                0      0.00%      9.26% # attempts to use FU when none available (Count)
system.cpu.statFuBusy::SimdReduceAdd                0      0.00%      9.26% # attempts to use FU when none available (Count)
system.cpu.statFuBusy::SimdReduceAlu                0      0.00%      9.26% # attempts to use FU when none available (Count)
system.cpu.statFuBusy::SimdReduceCmp                0      0.00%      9.26% # attempts to use FU when none available (Count)
system.cpu.statFuBusy::SimdFloatReduceAdd            0      0.00%      9.26% # attempts to use FU when none available (Count)
system.cpu.statFuBusy::SimdFloatReduceCmp            0      0.00%      9.26% # attempts to use FU when none available (Count)
system.cpu.statFuBusy::SimdAes                      0      0.00%      9.26% # attempts to use FU when none available (Count)
system.cpu.statFuBusy::SimdAesMix                   0      0.00%      9.26% # attempts to use FU when none available (Count)
system.cpu.statFuBusy::SimdSha1Hash                 0      0.00%      9.26% # attempts to use FU when none available (Count)
system.cpu.statFuBusy::SimdSha1Hash2                0      0.00%      9.26% # attempts to use FU when none available (Count)
system.cpu.statFuBusy::SimdSha256Hash               0      0.00%      9.26% # attempts to use FU when none available (Count)
system.cpu.statFuBusy::SimdSha256Hash2              0      0.00%      9.26% # attempts to use FU when none available (Count)
system.cpu.statFuBusy::SimdShaSigma2                0      0.00%      9.26% # attempts to use FU when none available (Count)
system.cpu.statFuBusy::SimdShaSigma3                0      0.00%      9.26% # attempts to use FU when none available (Count)
system.cpu.statFuBusy::SimdPredAlu                  0      0.00%      9.26% # attempts to use FU when none available (Count)
system.cpu.statFuBusy::MemRead                  21329     30.91%     40.17% # attempts to use FU when none available (Count)
system.cpu.statFuBusy::MemWrite                   784      1.14%     41.30% # attempts to use FU when none available (Count)
system.cpu.statFuBusy::FloatMemRead                60      0.09%     41.39% # attempts to use FU when none available (Count)
system.cpu.statFuBusy::FloatMemWrite            40446     58.61%    100.00% # attempts to use FU when none available (Count)
system.cpu.statFuBusy::IprAccess                    0      0.00%    100.00% # attempts to use FU when none available (Count)
system.cpu.statFuBusy::InstPrefetch                 0      0.00%    100.00% # attempts to use FU when none available (Count)
system.cpu.statIssuedInstType_0::No_OpClass         1655      0.01%      0.01% # Number of instructions issued per FU type, per thread (Count)
system.cpu.statIssuedInstType_0::IntAlu       9487231     45.32%     45.33% # Number of instructions issued per FU type, per thread (Count)
system.cpu.statIssuedInstType_0::IntMult          659      0.00%     45.33% # Number of instructions issued per FU type, per thread (Count)
system.cpu.statIssuedInstType_0::IntDiv          1510      0.01%     45.34% # Number of instructions issued per FU type, per thread (Count)
system.cpu.statIssuedInstType_0::FloatAdd           39      0.00%     45.34% # Number of instructions issued per FU type, per thread (Count)
system.cpu.statIssuedInstType_0::FloatCmp            0      0.00%     45.34% # Number of instructions issued per FU type, per thread (Count)
system.cpu.statIssuedInstType_0::FloatCvt           64      0.00%     45.34% # Number of instructions issued per FU type, per thread (Count)
system.cpu.statIssuedInstType_0::FloatMult            0      0.00%     45.34% # Number of instructions issued per FU type, per thread (Count)
system.cpu.statIssuedInstType_0::FloatMultAcc            0      0.00%     45.34% # Number of instructions issued per FU type, per thread (Count)
system.cpu.statIssuedInstType_0::FloatDiv            0      0.00%     45.34% # Number of instructions issued per FU type, per thread (Count)
system.cpu.statIssuedInstType_0::FloatMisc            0      0.00%     45.34% # Number of instructions issued per FU type, per thread (Count)
system.cpu.statIssuedInstType_0::FloatSqrt            0      0.00%     45.34% # Number of instructions issued per FU type, per thread (Count)
system.cpu.statIssuedInstType_0::SimdAdd            0      0.00%     45.34% # Number of instructions issued per FU type, per thread (Count)
system.cpu.statIssuedInstType_0::SimdAddAcc            0      0.00%     45.34% # Number of instructions issued per FU type, per thread (Count)
system.cpu.statIssuedInstType_0::SimdAlu            6      0.00%     45.34% # Number of instructions issued per FU type, per thread (Count)
system.cpu.statIssuedInstType_0::SimdCmp            0      0.00%     45.34% # Number of instructions issued per FU type, per thread (Count)
system.cpu.statIssuedInstType_0::SimdCvt           44      0.00%     45.34% # Number of instructions issued per FU type, per thread (Count)
system.cpu.statIssuedInstType_0::SimdMisc           79      0.00%     45.34% # Number of instructions issued per FU type, per thread (Count)
system.cpu.statIssuedInstType_0::SimdMult            0      0.00%     45.34% # Number of instructions issued per FU type, per thread (Count)
system.cpu.statIssuedInstType_0::SimdMultAcc            0      0.00%     45.34% # Number of instructions issued per FU type, per thread (Count)
system.cpu.statIssuedInstType_0::SimdShift            0      0.00%     45.34% # Number of instructions issued per FU type, per thread (Count)
system.cpu.statIssuedInstType_0::SimdShiftAcc            0      0.00%     45.34% # Number of instructions issued per FU type, per thread (Count)
system.cpu.statIssuedInstType_0::SimdDiv            0      0.00%     45.34% # Number of instructions issued per FU type, per thread (Count)
system.cpu.statIssuedInstType_0::SimdSqrt            0      0.00%     45.34% # Number of instructions issued per FU type, per thread (Count)
system.cpu.statIssuedInstType_0::SimdFloatAdd            0      0.00%     45.34% # Number of instructions issued per FU type, per thread (Count)
system.cpu.statIssuedInstType_0::SimdFloatAlu            0      0.00%     45.34% # Number of instructions issued per FU type, per thread (Count)
system.cpu.statIssuedInstType_0::SimdFloatCmp            0      0.00%     45.34% # Number of instructions issued per FU type, per thread (Count)
system.cpu.statIssuedInstType_0::SimdFloatCvt            0      0.00%     45.34% # Number of instructions issued per FU type, per thread (Count)
system.cpu.statIssuedInstType_0::SimdFloatDiv            0      0.00%     45.34% # Number of instructions issued per FU type, per thread (Count)
system.cpu.statIssuedInstType_0::SimdFloatMisc            0      0.00%     45.34% # Number of instructions issued per FU type, per thread (Count)
system.cpu.statIssuedInstType_0::SimdFloatMult            0      0.00%     45.34% # Number of instructions issued per FU type, per thread (Count)
system.cpu.statIssuedInstType_0::SimdFloatMultAcc            0      0.00%     45.34% # Number of instructions issued per FU type, per thread (Count)
system.cpu.statIssuedInstType_0::SimdFloatSqrt            0      0.00%     45.34% # Number of instructions issued per FU type, per thread (Count)
system.cpu.statIssuedInstType_0::SimdReduceAdd            0      0.00%     45.34% # Number of instructions issued per FU type, per thread (Count)
system.cpu.statIssuedInstType_0::SimdReduceAlu            0      0.00%     45.34% # Number of instructions issued per FU type, per thread (Count)
system.cpu.statIssuedInstType_0::SimdReduceCmp            0      0.00%     45.34% # Number of instructions issued per FU type, per thread (Count)
system.cpu.statIssuedInstType_0::SimdFloatReduceAdd            0      0.00%     45.34% # Number of instructions issued per FU type, per thread (Count)
system.cpu.statIssuedInstType_0::SimdFloatReduceCmp            0      0.00%     45.34% # Number of instructions issued per FU type, per thread (Count)
system.cpu.statIssuedInstType_0::SimdAes            0      0.00%     45.34% # Number of instructions issued per FU type, per thread (Count)
system.cpu.statIssuedInstType_0::SimdAesMix            0      0.00%     45.34% # Number of instructions issued per FU type, per thread (Count)
system.cpu.statIssuedInstType_0::SimdSha1Hash            0      0.00%     45.34% # Number of instructions issued per FU type, per thread (Count)
system.cpu.statIssuedInstType_0::SimdSha1Hash2            0      0.00%     45.34% # Number of instructions issued per FU type, per thread (Count)
system.cpu.statIssuedInstType_0::SimdSha256Hash            0      0.00%     45.34% # Number of instructions issued per FU type, per thread (Count)
system.cpu.statIssuedInstType_0::SimdSha256Hash2            0      0.00%     45.34% # Number of instructions issued per FU type, per thread (Count)
system.cpu.statIssuedInstType_0::SimdShaSigma2            0      0.00%     45.34% # Number of instructions issued per FU type, per thread (Count)
system.cpu.statIssuedInstType_0::SimdShaSigma3            0      0.00%     45.34% # Number of instructions issued per FU type, per thread (Count)
system.cpu.statIssuedInstType_0::SimdPredAlu            0      0.00%     45.34% # Number of instructions issued per FU type, per thread (Count)
system.cpu.statIssuedInstType_0::MemRead       274980      1.31%     46.65% # Number of instructions issued per FU type, per thread (Count)
system.cpu.statIssuedInstType_0::MemWrite       167433      0.80%     47.45% # Number of instructions issued per FU type, per thread (Count)
system.cpu.statIssuedInstType_0::FloatMemRead          313      0.00%     47.45% # Number of instructions issued per FU type, per thread (Count)
system.cpu.statIssuedInstType_0::FloatMemWrite     11000964     52.55%    100.00% # Number of instructions issued per FU type, per thread (Count)
system.cpu.statIssuedInstType_0::IprAccess            0      0.00%    100.00% # Number of instructions issued per FU type, per thread (Count)
system.cpu.statIssuedInstType_0::InstPrefetch            0      0.00%    100.00% # Number of instructions issued per FU type, per thread (Count)
system.cpu.statIssuedInstType_0::total       20934977                       # Number of instructions issued per FU type, per thread (Count)
system.cpu.issueRate                         0.118562                       # Inst issue rate ((Count/Cycle))
system.cpu.fuBusy                               69008                       # FU busy when requested (Count)
system.cpu.fuBusyRate                        0.003296                       # FU busy rate (busy events/executed inst) ((Count/Count))
system.cpu.intInstQueueReads                196421648                       # Number of integer instruction queue reads (Count)
system.cpu.intInstQueueWrites                11622666                       # Number of integer instruction queue writes (Count)
system.cpu.intInstQueueWakeupAccesses         9882946                       # Number of integer instruction queue wakeup accesses (Count)
system.cpu.fpInstQueueReads                  22043596                       # Number of floating instruction queue reads (Count)
system.cpu.fpInstQueueWrites                 11648901                       # Number of floating instruction queue writes (Count)
system.cpu.fpInstQueueWakeupAccesses         10394812                       # Number of floating instruction queue wakeup accesses (Count)
system.cpu.vecInstQueueReads                        0                       # Number of vector instruction queue reads (Count)
system.cpu.vecInstQueueWrites                       0                       # Number of vector instruction queue writes (Count)
system.cpu.vecInstQueueWakeupAccesses               0                       # Number of vector instruction queue wakeup accesses (Count)
system.cpu.intAluAccesses                     9960288                       # Number of integer alu accesses (Count)
system.cpu.fpAluAccesses                     11042042                       # Number of floating point alu accesses (Count)
system.cpu.vecAluAccesses                           0                       # Number of vector alu accesses (Count)
system.cpu.numInsts                          20901592                       # Number of executed instructions (Count)
system.cpu.numLoadInsts                        271895                       # Number of load instructions executed (Count)
system.cpu.numSquashedInsts                     33385                       # Number of squashed instructions skipped in execute (Count)
system.cpu.numSwp                                   0                       # Number of swp insts executed (Count)
system.cpu.numNop                                   0                       # Number of nop insts executed (Count)
system.cpu.numRefs                           11426775                       # Number of memory reference insts executed (Count)
system.cpu.numBranches                        1468038                       # Number of branches executed (Count)
system.cpu.numStoreInsts                     11154880                       # Number of stores executed (Count)
system.cpu.numRate                           0.118373                       # Inst execution rate ((Count/Cycle))
system.cpu.timesIdled                             576                       # Number of times that the entire CPU went into an idle state and unscheduled itself (Count)
system.cpu.idleCycles                           48878                       # Total number of cycles that the CPU has spent unscheduled due to idling (Cycle)
system.cpu.committedInsts                    10000000                       # Number of Instructions Simulated (Count)
system.cpu.committedOps                      19429302                       # Number of Ops (including micro ops) Simulated (Count)
system.cpu.cpi                              17.657383                       # CPI: Cycles Per Instruction ((Cycle/Count))
system.cpu.totalCpi                         17.657383                       # CPI: Total CPI of All Threads ((Cycle/Count))
system.cpu.ipc                               0.056634                       # IPC: Instructions Per Cycle ((Count/Cycle))
system.cpu.totalIpc                          0.056634                       # IPC: Total IPC of All Threads ((Count/Cycle))
system.cpu.intRegfileReads                   22378468                       # Number of integer regfile reads (Count)
system.cpu.intRegfileWrites                   6984191                       # Number of integer regfile writes (Count)
system.cpu.fpRegfileReads                    11001705                       # Number of floating regfile reads (Count)
system.cpu.fpRegfileWrites                        525                       # Number of floating regfile writes (Count)
system.cpu.ccRegfileReads                     7720420                       # number of cc regfile reads (Count)
system.cpu.ccRegfileWrites                    6399799                       # number of cc regfile writes (Count)
system.cpu.miscRegfileReads                  14385239                       # number of misc regfile reads (Count)
system.cpu.miscRegfileWrites                       36                       # number of misc regfile writes (Count)
system.cpu.MemDepUnit__0.insertedLoads         341855                       # Number of loads inserted to the mem dependence unit. (Count)
system.cpu.MemDepUnit__0.insertedStores      11226132                       # Number of stores inserted to the mem dependence unit. (Count)
system.cpu.MemDepUnit__0.conflictingLoads         7293                       # Number of conflicting loads. (Count)
system.cpu.MemDepUnit__0.conflictingStores         6523                       # Number of conflicting stores. (Count)
system.cpu.MemDepUnit__1.insertedLoads              0                       # Number of loads inserted to the mem dependence unit. (Count)
system.cpu.MemDepUnit__1.insertedStores             0                       # Number of stores inserted to the mem dependence unit. (Count)
system.cpu.MemDepUnit__1.conflictingLoads            0                       # Number of conflicting loads. (Count)
system.cpu.MemDepUnit__1.conflictingStores            0                       # Number of conflicting stores. (Count)
system.cpu.MemDepUnit__2.insertedLoads              0                       # Number of loads inserted to the mem dependence unit. (Count)
system.cpu.MemDepUnit__2.insertedStores             0                       # Number of stores inserted to the mem dependence unit. (Count)
system.cpu.MemDepUnit__2.conflictingLoads            0                       # Number of conflicting loads. (Count)
system.cpu.MemDepUnit__2.conflictingStores            0                       # Number of conflicting stores. (Count)
system.cpu.MemDepUnit__3.insertedLoads              0                       # Number of loads inserted to the mem dependence unit. (Count)
system.cpu.MemDepUnit__3.insertedStores             0                       # Number of stores inserted to the mem dependence unit. (Count)
system.cpu.MemDepUnit__3.conflictingLoads            0                       # Number of conflicting loads. (Count)
system.cpu.MemDepUnit__3.conflictingStores            0                       # Number of conflicting stores. (Count)
system.cpu.branchPred.lookups                 1586459                       # Number of BP lookups (Count)
system.cpu.branchPred.condPredicted           1570835                       # Number of conditional branches predicted (Count)
system.cpu.branchPred.condIncorrect              5292                       # Number of conditional branches incorrect (Count)
system.cpu.branchPred.BTBLookups              1539474                       # Number of BTB lookups (Count)
system.cpu.branchPred.BTBHits                 1537180                       # Number of BTB hits (Count)
system.cpu.branchPred.BTBHitRatio            0.998510                       # BTB Hit Ratio (Ratio)
system.cpu.branchPred.RASUsed                    4567                       # Number of times the RAS was used to get a target. (Count)
system.cpu.branchPred.RASIncorrect                  0                       # Number of incorrect RAS predictions. (Count)
system.cpu.branchPred.indirectLookups            1012                       # Number of indirect predictor lookups. (Count)
system.cpu.branchPred.indirectHits                262                       # Number of indirect target hits. (Count)
system.cpu.branchPred.indirectMisses              750                       # Number of indirect misses. (Count)
system.cpu.branchPred.indirectMispredicted          142                       # Number of mispredicted indirect branches. (Count)
system.cpu.commit.commitSquashedInsts         1777181                       # The number of squashed insts skipped by commit (Count)
system.cpu.commit.commitNonSpecStalls              36                       # The number of times commit has been forced to stall to communicate backwards (Count)
system.cpu.commit.branchMispredicts             18665                       # The number of times a branch was mispredicted (Count)
system.cpu.commit.numCommittedDist::samples    176265388                       # Number of insts commited each cycle (Count)
system.cpu.commit.numCommittedDist::mean     0.110228                       # Number of insts commited each cycle (Count)
system.cpu.commit.numCommittedDist::stdev     0.453198                       # Number of insts commited each cycle (Count)
system.cpu.commit.numCommittedDist::underflows            0      0.00%      0.00% # Number of insts commited each cycle (Count)
system.cpu.commit.numCommittedDist::0       161909008     91.86%     91.86% # Number of insts commited each cycle (Count)
system.cpu.commit.numCommittedDist::1        11678796      6.63%     98.48% # Number of insts commited each cycle (Count)
system.cpu.commit.numCommittedDist::2         1089711      0.62%     99.10% # Number of insts commited each cycle (Count)
system.cpu.commit.numCommittedDist::3         1334583      0.76%     99.86% # Number of insts commited each cycle (Count)
system.cpu.commit.numCommittedDist::4           31008      0.02%     99.87% # Number of insts commited each cycle (Count)
system.cpu.commit.numCommittedDist::5           88235      0.05%     99.92% # Number of insts commited each cycle (Count)
system.cpu.commit.numCommittedDist::6           34182      0.02%     99.94% # Number of insts commited each cycle (Count)
system.cpu.commit.numCommittedDist::7            1884      0.00%     99.94% # Number of insts commited each cycle (Count)
system.cpu.commit.numCommittedDist::8           97981      0.06%    100.00% # Number of insts commited each cycle (Count)
system.cpu.commit.numCommittedDist::overflows            0      0.00%    100.00% # Number of insts commited each cycle (Count)
system.cpu.commit.numCommittedDist::min_value            0                       # Number of insts commited each cycle (Count)
system.cpu.commit.numCommittedDist::max_value            8                       # Number of insts commited each cycle (Count)
system.cpu.commit.numCommittedDist::total    176265388                       # Number of insts commited each cycle (Count)
system.cpu.commit.instsCommitted             10000000                       # Number of instructions committed (Count)
system.cpu.commit.opsCommitted               19429302                       # Number of ops (including micro ops) committed (Count)
system.cpu.commit.memRefs                    10691311                       # Number of memory references committed (Count)
system.cpu.commit.loads                        200672                       # Number of loads committed (Count)
system.cpu.commit.amos                              0                       # Number of atomic instructions committed (Count)
system.cpu.commit.membars                           0                       # Number of memory barriers committed (Count)
system.cpu.commit.branches                    1364327                       # Number of branches committed (Count)
system.cpu.commit.vectorInstructions                0                       # Number of committed Vector instructions. (Count)
system.cpu.commit.floating                   10354251                       # Number of committed floating point instructions. (Count)
system.cpu.commit.integer                    19425549                       # Number of committed integer instructions. (Count)
system.cpu.commit.functionCalls                  2774                       # Number of function calls committed. (Count)
system.cpu.commit.committedInstType_0::No_OpClass          579      0.00%      0.00% # Class of committed instruction (Count)
system.cpu.commit.committedInstType_0::IntAlu      8735175     44.96%     44.96% # Class of committed instruction (Count)
system.cpu.commit.committedInstType_0::IntMult          643      0.00%     44.97% # Class of committed instruction (Count)
system.cpu.commit.committedInstType_0::IntDiv         1388      0.01%     44.97% # Class of committed instruction (Count)
system.cpu.commit.committedInstType_0::FloatAdd           37      0.00%     44.97% # Class of committed instruction (Count)
system.cpu.commit.committedInstType_0::FloatCmp            0      0.00%     44.97% # Class of committed instruction (Count)
system.cpu.commit.committedInstType_0::FloatCvt           64      0.00%     44.97% # Class of committed instruction (Count)
system.cpu.commit.committedInstType_0::FloatMult            0      0.00%     44.97% # Class of committed instruction (Count)
system.cpu.commit.committedInstType_0::FloatMultAcc            0      0.00%     44.97% # Class of committed instruction (Count)
system.cpu.commit.committedInstType_0::FloatDiv            0      0.00%     44.97% # Class of committed instruction (Count)
system.cpu.commit.committedInstType_0::FloatMisc            0      0.00%     44.97% # Class of committed instruction (Count)
system.cpu.commit.committedInstType_0::FloatSqrt            0      0.00%     44.97% # Class of committed instruction (Count)
system.cpu.commit.committedInstType_0::SimdAdd            0      0.00%     44.97% # Class of committed instruction (Count)
system.cpu.commit.committedInstType_0::SimdAddAcc            0      0.00%     44.97% # Class of committed instruction (Count)
system.cpu.commit.committedInstType_0::SimdAlu            6      0.00%     44.97% # Class of committed instruction (Count)
system.cpu.commit.committedInstType_0::SimdCmp            0      0.00%     44.97% # Class of committed instruction (Count)
system.cpu.commit.committedInstType_0::SimdCvt           32      0.00%     44.97% # Class of committed instruction (Count)
system.cpu.commit.committedInstType_0::SimdMisc           67      0.00%     44.97% # Class of committed instruction (Count)
system.cpu.commit.committedInstType_0::SimdMult            0      0.00%     44.97% # Class of committed instruction (Count)
system.cpu.commit.committedInstType_0::SimdMultAcc            0      0.00%     44.97% # Class of committed instruction (Count)
system.cpu.commit.committedInstType_0::SimdShift            0      0.00%     44.97% # Class of committed instruction (Count)
system.cpu.commit.committedInstType_0::SimdShiftAcc            0      0.00%     44.97% # Class of committed instruction (Count)
system.cpu.commit.committedInstType_0::SimdDiv            0      0.00%     44.97% # Class of committed instruction (Count)
system.cpu.commit.committedInstType_0::SimdSqrt            0      0.00%     44.97% # Class of committed instruction (Count)
system.cpu.commit.committedInstType_0::SimdFloatAdd            0      0.00%     44.97% # Class of committed instruction (Count)
system.cpu.commit.committedInstType_0::SimdFloatAlu            0      0.00%     44.97% # Class of committed instruction (Count)
system.cpu.commit.committedInstType_0::SimdFloatCmp            0      0.00%     44.97% # Class of committed instruction (Count)
system.cpu.commit.committedInstType_0::SimdFloatCvt            0      0.00%     44.97% # Class of committed instruction (Count)
system.cpu.commit.committedInstType_0::SimdFloatDiv            0      0.00%     44.97% # Class of committed instruction (Count)
system.cpu.commit.committedInstType_0::SimdFloatMisc            0      0.00%     44.97% # Class of committed instruction (Count)
system.cpu.commit.committedInstType_0::SimdFloatMult            0      0.00%     44.97% # Class of committed instruction (Count)
system.cpu.commit.committedInstType_0::SimdFloatMultAcc            0      0.00%     44.97% # Class of committed instruction (Count)
system.cpu.commit.committedInstType_0::SimdFloatSqrt            0      0.00%     44.97% # Class of committed instruction (Count)
system.cpu.commit.committedInstType_0::SimdReduceAdd            0      0.00%     44.97% # Class of committed instruction (Count)
system.cpu.commit.committedInstType_0::SimdReduceAlu            0      0.00%     44.97% # Class of committed instruction (Count)
system.cpu.commit.committedInstType_0::SimdReduceCmp            0      0.00%     44.97% # Class of committed instruction (Count)
system.cpu.commit.committedInstType_0::SimdFloatReduceAdd            0      0.00%     44.97% # Class of committed instruction (Count)
system.cpu.commit.committedInstType_0::SimdFloatReduceCmp            0      0.00%     44.97% # Class of committed instruction (Count)
system.cpu.commit.committedInstType_0::SimdAes            0      0.00%     44.97% # Class of committed instruction (Count)
system.cpu.commit.committedInstType_0::SimdAesMix            0      0.00%     44.97% # Class of committed instruction (Count)
system.cpu.commit.committedInstType_0::SimdSha1Hash            0      0.00%     44.97% # Class of committed instruction (Count)
system.cpu.commit.committedInstType_0::SimdSha1Hash2            0      0.00%     44.97% # Class of committed instruction (Count)
system.cpu.commit.committedInstType_0::SimdSha256Hash            0      0.00%     44.97% # Class of committed instruction (Count)
system.cpu.commit.committedInstType_0::SimdSha256Hash2            0      0.00%     44.97% # Class of committed instruction (Count)
system.cpu.commit.committedInstType_0::SimdShaSigma2            0      0.00%     44.97% # Class of committed instruction (Count)
system.cpu.commit.committedInstType_0::SimdShaSigma3            0      0.00%     44.97% # Class of committed instruction (Count)
system.cpu.commit.committedInstType_0::SimdPredAlu            0      0.00%     44.97% # Class of committed instruction (Count)
system.cpu.commit.committedInstType_0::MemRead       200528      1.03%     46.01% # Class of committed instruction (Count)
system.cpu.commit.committedInstType_0::MemWrite       136759      0.70%     46.71% # Class of committed instruction (Count)
system.cpu.commit.committedInstType_0::FloatMemRead          144      0.00%     46.71% # Class of committed instruction (Count)
system.cpu.commit.committedInstType_0::FloatMemWrite     10353880     53.29%    100.00% # Class of committed instruction (Count)
system.cpu.commit.committedInstType_0::IprAccess            0      0.00%    100.00% # Class of committed instruction (Count)
system.cpu.commit.committedInstType_0::InstPrefetch            0      0.00%    100.00% # Class of committed instruction (Count)
system.cpu.commit.committedInstType_0::total     19429302                       # Class of committed instruction (Count)
system.cpu.commit.commitEligibleSamples         97981                       # number cycles where commit BW limit reached (Cycle)
system.cpu.dcache.demandHits::cpu.data        9442588                       # number of demand (read+write) hits (Count)
system.cpu.dcache.demandHits::total           9442588                       # number of demand (read+write) hits (Count)
system.cpu.dcache.overallHits::cpu.data       9442588                       # number of overall hits (Count)
system.cpu.dcache.overallHits::total          9442588                       # number of overall hits (Count)
system.cpu.dcache.demandMisses::cpu.data      1309012                       # number of demand (read+write) misses (Count)
system.cpu.dcache.demandMisses::total         1309012                       # number of demand (read+write) misses (Count)
system.cpu.dcache.overallMisses::cpu.data      1309012                       # number of overall misses (Count)
system.cpu.dcache.overallMisses::total        1309012                       # number of overall misses (Count)
system.cpu.dcache.demandMissLatency::cpu.data  79126413988                       # number of demand (read+write) miss ticks (Tick)
system.cpu.dcache.demandMissLatency::total  79126413988                       # number of demand (read+write) miss ticks (Tick)
system.cpu.dcache.overallMissLatency::cpu.data  79126413988                       # number of overall miss ticks (Tick)
system.cpu.dcache.overallMissLatency::total  79126413988                       # number of overall miss ticks (Tick)
system.cpu.dcache.demandAccesses::cpu.data     10751600                       # number of demand (read+write) accesses (Count)
system.cpu.dcache.demandAccesses::total      10751600                       # number of demand (read+write) accesses (Count)
system.cpu.dcache.overallAccesses::cpu.data     10751600                       # number of overall (read+write) accesses (Count)
system.cpu.dcache.overallAccesses::total     10751600                       # number of overall (read+write) accesses (Count)
system.cpu.dcache.demandMissRate::cpu.data     0.121750                       # miss rate for demand accesses (Ratio)
system.cpu.dcache.demandMissRate::total      0.121750                       # miss rate for demand accesses (Ratio)
system.cpu.dcache.overallMissRate::cpu.data     0.121750                       # miss rate for overall accesses (Ratio)
system.cpu.dcache.overallMissRate::total     0.121750                       # miss rate for overall accesses (Ratio)
system.cpu.dcache.demandAvgMissLatency::cpu.data 60447.432100                       # average overall miss latency in ticks ((Tick/Count))
system.cpu.dcache.demandAvgMissLatency::total 60447.432100                       # average overall miss latency in ticks ((Tick/Count))
system.cpu.dcache.overallAvgMissLatency::cpu.data 60447.432100                       # average overall miss latency ((Tick/Count))
system.cpu.dcache.overallAvgMissLatency::total 60447.432100                       # average overall miss latency ((Tick/Count))
system.cpu.dcache.blockedCycles::no_mshrs        15260                       # number of cycles access was blocked (Cycle)
system.cpu.dcache.blockedCycles::no_targets          174                       # number of cycles access was blocked (Cycle)
system.cpu.dcache.blockedCauses::no_mshrs          331                       # number of times access was blocked (Count)
system.cpu.dcache.blockedCauses::no_targets            2                       # number of times access was blocked (Count)
system.cpu.dcache.avgBlocked::no_mshrs      46.102719                       # average number of cycles each access was blocked ((Cycle/Count))
system.cpu.dcache.avgBlocked::no_targets           87                       # average number of cycles each access was blocked ((Cycle/Count))
system.cpu.dcache.writebacks::writebacks      1296503                       # number of writebacks (Count)
system.cpu.dcache.writebacks::total           1296503                       # number of writebacks (Count)
system.cpu.dcache.demandMshrHits::cpu.data         9175                       # number of demand (read+write) MSHR hits (Count)
system.cpu.dcache.demandMshrHits::total          9175                       # number of demand (read+write) MSHR hits (Count)
system.cpu.dcache.overallMshrHits::cpu.data         9175                       # number of overall MSHR hits (Count)
system.cpu.dcache.overallMshrHits::total         9175                       # number of overall MSHR hits (Count)
system.cpu.dcache.demandMshrMisses::cpu.data      1299837                       # number of demand (read+write) MSHR misses (Count)
system.cpu.dcache.demandMshrMisses::total      1299837                       # number of demand (read+write) MSHR misses (Count)
system.cpu.dcache.overallMshrMisses::cpu.data      1299837                       # number of overall MSHR misses (Count)
system.cpu.dcache.overallMshrMisses::total      1299837                       # number of overall MSHR misses (Count)
system.cpu.dcache.demandMshrMissLatency::cpu.data  77379922989                       # number of demand (read+write) MSHR miss ticks (Tick)
system.cpu.dcache.demandMshrMissLatency::total  77379922989                       # number of demand (read+write) MSHR miss ticks (Tick)
system.cpu.dcache.overallMshrMissLatency::cpu.data  77379922989                       # number of overall MSHR miss ticks (Tick)
system.cpu.dcache.overallMshrMissLatency::total  77379922989                       # number of overall MSHR miss ticks (Tick)
system.cpu.dcache.demandMshrMissRate::cpu.data     0.120897                       # mshr miss ratio for demand accesses (Ratio)
system.cpu.dcache.demandMshrMissRate::total     0.120897                       # mshr miss ratio for demand accesses (Ratio)
system.cpu.dcache.overallMshrMissRate::cpu.data     0.120897                       # mshr miss ratio for overall accesses (Ratio)
system.cpu.dcache.overallMshrMissRate::total     0.120897                       # mshr miss ratio for overall accesses (Ratio)
system.cpu.dcache.demandAvgMshrMissLatency::cpu.data 59530.481890                       # average overall mshr miss latency ((Tick/Count))
system.cpu.dcache.demandAvgMshrMissLatency::total 59530.481890                       # average overall mshr miss latency ((Tick/Count))
system.cpu.dcache.overallAvgMshrMissLatency::cpu.data 59530.481890                       # average overall mshr miss latency ((Tick/Count))
system.cpu.dcache.overallAvgMshrMissLatency::total 59530.481890                       # average overall mshr miss latency ((Tick/Count))
system.cpu.dcache.replacements                1298812                       # number of replacements (Count)
system.cpu.dcache.ReadReq.hits::cpu.data       249421                       # number of ReadReq hits (Count)
system.cpu.dcache.ReadReq.hits::total          249421                       # number of ReadReq hits (Count)
system.cpu.dcache.ReadReq.misses::cpu.data        11570                       # number of ReadReq misses (Count)
system.cpu.dcache.ReadReq.misses::total         11570                       # number of ReadReq misses (Count)
system.cpu.dcache.ReadReq.missLatency::cpu.data    598477000                       # number of ReadReq miss ticks (Tick)
system.cpu.dcache.ReadReq.missLatency::total    598477000                       # number of ReadReq miss ticks (Tick)
system.cpu.dcache.ReadReq.accesses::cpu.data       260991                       # number of ReadReq accesses(hits+misses) (Count)
system.cpu.dcache.ReadReq.accesses::total       260991                       # number of ReadReq accesses(hits+misses) (Count)
system.cpu.dcache.ReadReq.missRate::cpu.data     0.044331                       # miss rate for ReadReq accesses (Ratio)
system.cpu.dcache.ReadReq.missRate::total     0.044331                       # miss rate for ReadReq accesses (Ratio)
system.cpu.dcache.ReadReq.avgMissLatency::cpu.data 51726.620570                       # average ReadReq miss latency ((Tick/Count))
system.cpu.dcache.ReadReq.avgMissLatency::total 51726.620570                       # average ReadReq miss latency ((Tick/Count))
system.cpu.dcache.ReadReq.mshrHits::cpu.data         9168                       # number of ReadReq MSHR hits (Count)
system.cpu.dcache.ReadReq.mshrHits::total         9168                       # number of ReadReq MSHR hits (Count)
system.cpu.dcache.ReadReq.mshrMisses::cpu.data         2402                       # number of ReadReq MSHR misses (Count)
system.cpu.dcache.ReadReq.mshrMisses::total         2402                       # number of ReadReq MSHR misses (Count)
system.cpu.dcache.ReadReq.mshrMissLatency::cpu.data    149725000                       # number of ReadReq MSHR miss ticks (Tick)
system.cpu.dcache.ReadReq.mshrMissLatency::total    149725000                       # number of ReadReq MSHR miss ticks (Tick)
system.cpu.dcache.ReadReq.mshrMissRate::cpu.data     0.009203                       # mshr miss rate for ReadReq accesses (Ratio)
system.cpu.dcache.ReadReq.mshrMissRate::total     0.009203                       # mshr miss rate for ReadReq accesses (Ratio)
system.cpu.dcache.ReadReq.avgMshrMissLatency::cpu.data 62333.472107                       # average ReadReq mshr miss latency ((Tick/Count))
system.cpu.dcache.ReadReq.avgMshrMissLatency::total 62333.472107                       # average ReadReq mshr miss latency ((Tick/Count))
system.cpu.dcache.WriteReq.hits::cpu.data      9193167                       # number of WriteReq hits (Count)
system.cpu.dcache.WriteReq.hits::total        9193167                       # number of WriteReq hits (Count)
system.cpu.dcache.WriteReq.misses::cpu.data      1297442                       # number of WriteReq misses (Count)
system.cpu.dcache.WriteReq.misses::total      1297442                       # number of WriteReq misses (Count)
system.cpu.dcache.WriteReq.missLatency::cpu.data  78527936988                       # number of WriteReq miss ticks (Tick)
system.cpu.dcache.WriteReq.missLatency::total  78527936988                       # number of WriteReq miss ticks (Tick)
system.cpu.dcache.WriteReq.accesses::cpu.data     10490609                       # number of WriteReq accesses(hits+misses) (Count)
system.cpu.dcache.WriteReq.accesses::total     10490609                       # number of WriteReq accesses(hits+misses) (Count)
system.cpu.dcache.WriteReq.missRate::cpu.data     0.123677                       # miss rate for WriteReq accesses (Ratio)
system.cpu.dcache.WriteReq.missRate::total     0.123677                       # miss rate for WriteReq accesses (Ratio)
system.cpu.dcache.WriteReq.avgMissLatency::cpu.data 60525.200347                       # average WriteReq miss latency ((Tick/Count))
system.cpu.dcache.WriteReq.avgMissLatency::total 60525.200347                       # average WriteReq miss latency ((Tick/Count))
system.cpu.dcache.WriteReq.mshrHits::cpu.data            7                       # number of WriteReq MSHR hits (Count)
system.cpu.dcache.WriteReq.mshrHits::total            7                       # number of WriteReq MSHR hits (Count)
system.cpu.dcache.WriteReq.mshrMisses::cpu.data      1297435                       # number of WriteReq MSHR misses (Count)
system.cpu.dcache.WriteReq.mshrMisses::total      1297435                       # number of WriteReq MSHR misses (Count)
system.cpu.dcache.WriteReq.mshrMissLatency::cpu.data  77230197989                       # number of WriteReq MSHR miss ticks (Tick)
system.cpu.dcache.WriteReq.mshrMissLatency::total  77230197989                       # number of WriteReq MSHR miss ticks (Tick)
system.cpu.dcache.WriteReq.mshrMissRate::cpu.data     0.123676                       # mshr miss rate for WriteReq accesses (Ratio)
system.cpu.dcache.WriteReq.mshrMissRate::total     0.123676                       # mshr miss rate for WriteReq accesses (Ratio)
system.cpu.dcache.WriteReq.avgMshrMissLatency::cpu.data 59525.292588                       # average WriteReq mshr miss latency ((Tick/Count))
system.cpu.dcache.WriteReq.avgMshrMissLatency::total 59525.292588                       # average WriteReq mshr miss latency ((Tick/Count))
system.cpu.dcache.power_state.pwrStateResidencyTicks::UNDEFINED  88286915500                       # Cumulative time (in ticks) in various power states (Tick)
system.cpu.dcache.tags.tagsInUse          1023.464582                       # Average ticks per tags in use ((Tick/Count))
system.cpu.dcache.tags.totalRefs             10742424                       # Total number of references to valid blocks. (Count)
system.cpu.dcache.tags.sampledRefs            1299836                       # Sample count of references to valid blocks. (Count)
system.cpu.dcache.tags.avgRefs               8.264446                       # Average number of references to valid blocks. ((Count/Count))
system.cpu.dcache.tags.warmupTick              148000                       # The tick when the warmup percentage was hit. (Tick)
system.cpu.dcache.tags.occupancies::cpu.data  1023.464582                       # Average occupied blocks per tick, per requestor ((Count/Tick))
system.cpu.dcache.tags.avgOccs::cpu.data     0.999477                       # Average percentage of cache occupancy ((Ratio/Tick))
system.cpu.dcache.tags.avgOccs::total        0.999477                       # Average percentage of cache occupancy ((Ratio/Tick))
system.cpu.dcache.tags.occupanciesTaskId::1024         1024                       # Occupied blocks per task id (Count)
system.cpu.dcache.tags.ageTaskId_1024::0          148                       # Occupied blocks per task id, per block age (Count)
system.cpu.dcache.tags.ageTaskId_1024::1          876                       # Occupied blocks per task id, per block age (Count)
system.cpu.dcache.tags.ratioOccsTaskId::1024            1                       # Ratio of occupied blocks and all blocks, per task id (Ratio)
system.cpu.dcache.tags.tagAccesses           22803036                       # Number of tag accesses (Count)
system.cpu.dcache.tags.dataAccesses          22803036                       # Number of data accesses (Count)
system.cpu.dcache.tags.power_state.pwrStateResidencyTicks::UNDEFINED  88286915500                       # Cumulative time (in ticks) in various power states (Tick)
system.cpu.decode.idleCycles                  1020403                       # Number of cycles decode is idle (Cycle)
system.cpu.decode.blockedCycles             172617308                       # Number of cycles decode is blocked (Cycle)
system.cpu.decode.runCycles                    480324                       # Number of cycles decode is running (Cycle)
system.cpu.decode.unblockCycles               2367856                       # Number of cycles decode is unblocking (Cycle)
system.cpu.decode.squashCycles                  39063                       # Number of cycles decode is squashing (Cycle)
system.cpu.decode.branchResolved              1469045                       # Number of times decode resolved a branch (Count)
system.cpu.decode.branchMispred                   495                       # Number of times decode detected a branch misprediction (Count)
system.cpu.decode.decodedInsts               21656385                       # Number of instructions handled by decode (Count)
system.cpu.decode.squashedInsts                  2370                       # Number of squashed instructions handled by decode (Count)
system.cpu.dtb_walker_cache.blockedCycles::no_mshrs            0                       # number of cycles access was blocked (Cycle)
system.cpu.dtb_walker_cache.blockedCycles::no_targets            0                       # number of cycles access was blocked (Cycle)
system.cpu.dtb_walker_cache.blockedCauses::no_mshrs            0                       # number of times access was blocked (Count)
system.cpu.dtb_walker_cache.blockedCauses::no_targets            0                       # number of times access was blocked (Count)
system.cpu.dtb_walker_cache.avgBlocked::no_mshrs          nan                       # average number of cycles each access was blocked ((Cycle/Count))
system.cpu.dtb_walker_cache.avgBlocked::no_targets          nan                       # average number of cycles each access was blocked ((Cycle/Count))
system.cpu.dtb_walker_cache.replacements            0                       # number of replacements (Count)
system.cpu.dtb_walker_cache.power_state.pwrStateResidencyTicks::UNDEFINED  88286915500                       # Cumulative time (in ticks) in various power states (Tick)
system.cpu.dtb_walker_cache.tags.tagsInUse            0                       # Average ticks per tags in use ((Tick/Count))
system.cpu.dtb_walker_cache.tags.totalRefs            0                       # Total number of references to valid blocks. (Count)
system.cpu.dtb_walker_cache.tags.sampledRefs            0                       # Sample count of references to valid blocks. (Count)
system.cpu.dtb_walker_cache.tags.avgRefs          nan                       # Average number of references to valid blocks. ((Count/Count))
system.cpu.dtb_walker_cache.tags.warmupTick            0                       # The tick when the warmup percentage was hit. (Tick)
system.cpu.dtb_walker_cache.tags.tagAccesses            0                       # Number of tag accesses (Count)
system.cpu.dtb_walker_cache.tags.dataAccesses            0                       # Number of data accesses (Count)
system.cpu.dtb_walker_cache.tags.power_state.pwrStateResidencyTicks::UNDEFINED  88286915500                       # Cumulative time (in ticks) in various power states (Tick)
system.cpu.fetch.icacheStallCycles            3112241                       # Number of cycles fetch is stalled on an Icache miss (Cycle)
system.cpu.fetch.insts                       11860510                       # Number of instructions fetch has processed (Count)
system.cpu.fetch.branches                     1586459                       # Number of branches that fetch encountered (Count)
system.cpu.fetch.predictedBranches            1542009                       # Number of branches that fetch has predicted taken (Count)
system.cpu.fetch.cycles                     173370921                       # Number of cycles fetch has run and was not squashing or blocked (Cycle)
system.cpu.fetch.squashCycles                   79090                       # Number of cycles fetch has spent squashing (Cycle)
system.cpu.fetch.miscStallCycles                  273                       # Number of cycles fetch has spent waiting on interrupts, or bad addresses, or out of MSHRs (Cycle)
system.cpu.fetch.pendingTrapStallCycles          1961                       # Number of stall cycles due to pending traps (Cycle)
system.cpu.fetch.icacheWaitRetryStallCycles           13                       # Number of stall cycles due to full MSHR (Cycle)
system.cpu.fetch.cacheLines                   3078188                       # Number of cache lines fetched (Count)
system.cpu.fetch.icacheSquashes                  4133                       # Number of outstanding Icache misses that were squashed (Count)
system.cpu.fetch.nisnDist::samples          176524954                       # Number of instructions fetched each cycle (Total) (Count)
system.cpu.fetch.nisnDist::mean              0.128524                       # Number of instructions fetched each cycle (Total) (Count)
system.cpu.fetch.nisnDist::stdev             0.845956                       # Number of instructions fetched each cycle (Total) (Count)
system.cpu.fetch.nisnDist::underflows               0      0.00%      0.00% # Number of instructions fetched each cycle (Total) (Count)
system.cpu.fetch.nisnDist::0                171556361     97.19%     97.19% # Number of instructions fetched each cycle (Total) (Count)
system.cpu.fetch.nisnDist::1                    29418      0.02%     97.20% # Number of instructions fetched each cycle (Total) (Count)
system.cpu.fetch.nisnDist::2                  1441084      0.82%     98.02% # Number of instructions fetched each cycle (Total) (Count)
system.cpu.fetch.nisnDist::3                    21844      0.01%     98.03% # Number of instructions fetched each cycle (Total) (Count)
system.cpu.fetch.nisnDist::4                  1752963      0.99%     99.02% # Number of instructions fetched each cycle (Total) (Count)
system.cpu.fetch.nisnDist::5                    51443      0.03%     99.05% # Number of instructions fetched each cycle (Total) (Count)
system.cpu.fetch.nisnDist::6                   460898      0.26%     99.31% # Number of instructions fetched each cycle (Total) (Count)
system.cpu.fetch.nisnDist::7                    11473      0.01%     99.32% # Number of instructions fetched each cycle (Total) (Count)
system.cpu.fetch.nisnDist::8                  1199470      0.68%    100.00% # Number of instructions fetched each cycle (Total) (Count)
system.cpu.fetch.nisnDist::overflows                0      0.00%    100.00% # Number of instructions fetched each cycle (Total) (Count)
system.cpu.fetch.nisnDist::min_value                0                       # Number of instructions fetched each cycle (Total) (Count)
system.cpu.fetch.nisnDist::max_value                8                       # Number of instructions fetched each cycle (Total) (Count)
system.cpu.fetch.nisnDist::total            176524954                       # Number of instructions fetched each cycle (Total) (Count)
system.cpu.fetch.branchRate                  0.008985                       # Number of branch fetches per cycle (Ratio)
system.cpu.fetch.rate                        0.067170                       # Number of inst fetches per cycle ((Count/Cycle))
system.cpu.icache.demandHits::cpu.inst        3076718                       # number of demand (read+write) hits (Count)
system.cpu.icache.demandHits::total           3076718                       # number of demand (read+write) hits (Count)
system.cpu.icache.overallHits::cpu.inst       3076718                       # number of overall hits (Count)
system.cpu.icache.overallHits::total          3076718                       # number of overall hits (Count)
system.cpu.icache.demandMisses::cpu.inst         1470                       # number of demand (read+write) misses (Count)
system.cpu.icache.demandMisses::total            1470                       # number of demand (read+write) misses (Count)
system.cpu.icache.overallMisses::cpu.inst         1470                       # number of overall misses (Count)
system.cpu.icache.overallMisses::total           1470                       # number of overall misses (Count)
system.cpu.icache.demandMissLatency::cpu.inst     84381500                       # number of demand (read+write) miss ticks (Tick)
system.cpu.icache.demandMissLatency::total     84381500                       # number of demand (read+write) miss ticks (Tick)
system.cpu.icache.overallMissLatency::cpu.inst     84381500                       # number of overall miss ticks (Tick)
system.cpu.icache.overallMissLatency::total     84381500                       # number of overall miss ticks (Tick)
system.cpu.icache.demandAccesses::cpu.inst      3078188                       # number of demand (read+write) accesses (Count)
system.cpu.icache.demandAccesses::total       3078188                       # number of demand (read+write) accesses (Count)
system.cpu.icache.overallAccesses::cpu.inst      3078188                       # number of overall (read+write) accesses (Count)
system.cpu.icache.overallAccesses::total      3078188                       # number of overall (read+write) accesses (Count)
system.cpu.icache.demandMissRate::cpu.inst     0.000478                       # miss rate for demand accesses (Ratio)
system.cpu.icache.demandMissRate::total      0.000478                       # miss rate for demand accesses (Ratio)
system.cpu.icache.overallMissRate::cpu.inst     0.000478                       # miss rate for overall accesses (Ratio)
system.cpu.icache.overallMissRate::total     0.000478                       # miss rate for overall accesses (Ratio)
system.cpu.icache.demandAvgMissLatency::cpu.inst 57402.380952                       # average overall miss latency in ticks ((Tick/Count))
system.cpu.icache.demandAvgMissLatency::total 57402.380952                       # average overall miss latency in ticks ((Tick/Count))
system.cpu.icache.overallAvgMissLatency::cpu.inst 57402.380952                       # average overall miss latency ((Tick/Count))
system.cpu.icache.overallAvgMissLatency::total 57402.380952                       # average overall miss latency ((Tick/Count))
system.cpu.icache.blockedCycles::no_mshrs          269                       # number of cycles access was blocked (Cycle)
system.cpu.icache.blockedCycles::no_targets            0                       # number of cycles access was blocked (Cycle)
system.cpu.icache.blockedCauses::no_mshrs            4                       # number of times access was blocked (Count)
system.cpu.icache.blockedCauses::no_targets            0                       # number of times access was blocked (Count)
system.cpu.icache.avgBlocked::no_mshrs      67.250000                       # average number of cycles each access was blocked ((Cycle/Count))
system.cpu.icache.avgBlocked::no_targets          nan                       # average number of cycles each access was blocked ((Cycle/Count))
system.cpu.icache.writebacks::writebacks          446                       # number of writebacks (Count)
system.cpu.icache.writebacks::total               446                       # number of writebacks (Count)
system.cpu.icache.demandMshrHits::cpu.inst          527                       # number of demand (read+write) MSHR hits (Count)
system.cpu.icache.demandMshrHits::total           527                       # number of demand (read+write) MSHR hits (Count)
system.cpu.icache.overallMshrHits::cpu.inst          527                       # number of overall MSHR hits (Count)
system.cpu.icache.overallMshrHits::total          527                       # number of overall MSHR hits (Count)
system.cpu.icache.demandMshrMisses::cpu.inst          943                       # number of demand (read+write) MSHR misses (Count)
system.cpu.icache.demandMshrMisses::total          943                       # number of demand (read+write) MSHR misses (Count)
system.cpu.icache.overallMshrMisses::cpu.inst          943                       # number of overall MSHR misses (Count)
system.cpu.icache.overallMshrMisses::total          943                       # number of overall MSHR misses (Count)
system.cpu.icache.demandMshrMissLatency::cpu.inst     57324000                       # number of demand (read+write) MSHR miss ticks (Tick)
system.cpu.icache.demandMshrMissLatency::total     57324000                       # number of demand (read+write) MSHR miss ticks (Tick)
system.cpu.icache.overallMshrMissLatency::cpu.inst     57324000                       # number of overall MSHR miss ticks (Tick)
system.cpu.icache.overallMshrMissLatency::total     57324000                       # number of overall MSHR miss ticks (Tick)
system.cpu.icache.demandMshrMissRate::cpu.inst     0.000306                       # mshr miss ratio for demand accesses (Ratio)
system.cpu.icache.demandMshrMissRate::total     0.000306                       # mshr miss ratio for demand accesses (Ratio)
system.cpu.icache.overallMshrMissRate::cpu.inst     0.000306                       # mshr miss ratio for overall accesses (Ratio)
system.cpu.icache.overallMshrMissRate::total     0.000306                       # mshr miss ratio for overall accesses (Ratio)
system.cpu.icache.demandAvgMshrMissLatency::cpu.inst 60788.971368                       # average overall mshr miss latency ((Tick/Count))
system.cpu.icache.demandAvgMshrMissLatency::total 60788.971368                       # average overall mshr miss latency ((Tick/Count))
system.cpu.icache.overallAvgMshrMissLatency::cpu.inst 60788.971368                       # average overall mshr miss latency ((Tick/Count))
system.cpu.icache.overallAvgMshrMissLatency::total 60788.971368                       # average overall mshr miss latency ((Tick/Count))
system.cpu.icache.replacements                    446                       # number of replacements (Count)
system.cpu.icache.ReadReq.hits::cpu.inst      3076718                       # number of ReadReq hits (Count)
system.cpu.icache.ReadReq.hits::total         3076718                       # number of ReadReq hits (Count)
system.cpu.icache.ReadReq.misses::cpu.inst         1470                       # number of ReadReq misses (Count)
system.cpu.icache.ReadReq.misses::total          1470                       # number of ReadReq misses (Count)
system.cpu.icache.ReadReq.missLatency::cpu.inst     84381500                       # number of ReadReq miss ticks (Tick)
system.cpu.icache.ReadReq.missLatency::total     84381500                       # number of ReadReq miss ticks (Tick)
system.cpu.icache.ReadReq.accesses::cpu.inst      3078188                       # number of ReadReq accesses(hits+misses) (Count)
system.cpu.icache.ReadReq.accesses::total      3078188                       # number of ReadReq accesses(hits+misses) (Count)
system.cpu.icache.ReadReq.missRate::cpu.inst     0.000478                       # miss rate for ReadReq accesses (Ratio)
system.cpu.icache.ReadReq.missRate::total     0.000478                       # miss rate for ReadReq accesses (Ratio)
system.cpu.icache.ReadReq.avgMissLatency::cpu.inst 57402.380952                       # average ReadReq miss latency ((Tick/Count))
system.cpu.icache.ReadReq.avgMissLatency::total 57402.380952                       # average ReadReq miss latency ((Tick/Count))
system.cpu.icache.ReadReq.mshrHits::cpu.inst          527                       # number of ReadReq MSHR hits (Count)
system.cpu.icache.ReadReq.mshrHits::total          527                       # number of ReadReq MSHR hits (Count)
system.cpu.icache.ReadReq.mshrMisses::cpu.inst          943                       # number of ReadReq MSHR misses (Count)
system.cpu.icache.ReadReq.mshrMisses::total          943                       # number of ReadReq MSHR misses (Count)
system.cpu.icache.ReadReq.mshrMissLatency::cpu.inst     57324000                       # number of ReadReq MSHR miss ticks (Tick)
system.cpu.icache.ReadReq.mshrMissLatency::total     57324000                       # number of ReadReq MSHR miss ticks (Tick)
system.cpu.icache.ReadReq.mshrMissRate::cpu.inst     0.000306                       # mshr miss rate for ReadReq accesses (Ratio)
system.cpu.icache.ReadReq.mshrMissRate::total     0.000306                       # mshr miss rate for ReadReq accesses (Ratio)
system.cpu.icache.ReadReq.avgMshrMissLatency::cpu.inst 60788.971368                       # average ReadReq mshr miss latency ((Tick/Count))
system.cpu.icache.ReadReq.avgMshrMissLatency::total 60788.971368                       # average ReadReq mshr miss latency ((Tick/Count))
system.cpu.icache.power_state.pwrStateResidencyTicks::UNDEFINED  88286915500                       # Cumulative time (in ticks) in various power states (Tick)
system.cpu.icache.tags.tagsInUse           496.767051                       # Average ticks per tags in use ((Tick/Count))
system.cpu.icache.tags.totalRefs              3077661                       # Total number of references to valid blocks. (Count)
system.cpu.icache.tags.sampledRefs                943                       # Sample count of references to valid blocks. (Count)
system.cpu.icache.tags.avgRefs            3263.691410                       # Average number of references to valid blocks. ((Count/Count))
system.cpu.icache.tags.warmupTick               77000                       # The tick when the warmup percentage was hit. (Tick)
system.cpu.icache.tags.occupancies::cpu.inst   496.767051                       # Average occupied blocks per tick, per requestor ((Count/Tick))
system.cpu.icache.tags.avgOccs::cpu.inst     0.970248                       # Average percentage of cache occupancy ((Ratio/Tick))
system.cpu.icache.tags.avgOccs::total        0.970248                       # Average percentage of cache occupancy ((Ratio/Tick))
system.cpu.icache.tags.occupanciesTaskId::1024          497                       # Occupied blocks per task id (Count)
system.cpu.icache.tags.ageTaskId_1024::4          497                       # Occupied blocks per task id, per block age (Count)
system.cpu.icache.tags.ratioOccsTaskId::1024     0.970703                       # Ratio of occupied blocks and all blocks, per task id (Ratio)
system.cpu.icache.tags.tagAccesses            6157319                       # Number of tag accesses (Count)
system.cpu.icache.tags.dataAccesses           6157319                       # Number of data accesses (Count)
system.cpu.icache.tags.power_state.pwrStateResidencyTicks::UNDEFINED  88286915500                       # Cumulative time (in ticks) in various power states (Tick)
system.cpu.iew.idleCycles                           0                       # Number of cycles IEW is idle (Cycle)
system.cpu.iew.squashCycles                     39063                       # Number of cycles IEW is squashing (Cycle)
system.cpu.iew.blockCycles                     264043                       # Number of cycles IEW is blocking (Cycle)
system.cpu.iew.unblockCycles                 75990866                       # Number of cycles IEW is unblocking (Cycle)
system.cpu.iew.dispatchedInsts               21350410                       # Number of instructions dispatched to IQ (Count)
system.cpu.iew.dispSquashedInsts                  634                       # Number of squashed instructions skipped by dispatch (Count)
system.cpu.iew.dispLoadInsts                   341855                       # Number of dispatched load instructions (Count)
system.cpu.iew.dispStoreInsts                11226132                       # Number of dispatched store instructions (Count)
system.cpu.iew.dispNonSpecInsts                    59                       # Number of dispatched non-speculative instructions (Count)
system.cpu.iew.iqFullEvents                       496                       # Number of times the IQ has become full, causing a stall (Count)
system.cpu.iew.lsqFullEvents                 76010026                       # Number of times the LSQ has become full, causing a stall (Count)
system.cpu.iew.memOrderViolationEvents             61                       # Number of memory order violations (Count)
system.cpu.iew.predictedTakenIncorrect           2423                       # Number of branches that were predicted taken incorrectly (Count)
system.cpu.iew.predictedNotTakenIncorrect         3506                       # Number of branches that were predicted not taken incorrectly (Count)
system.cpu.iew.branchMispredicts                 5929                       # Number of branch mispredicts detected at execute (Count)
system.cpu.iew.mispredictedLVP                  32577                       # mispredictedLVP (Count)
system.cpu.iew.LvpCorrect                      156783                       # LvpCorrect (Count)
system.cpu.iew.instsToCommit                 20891347                       # Cumulative count of insts sent to commit (Count)
system.cpu.iew.writebackCount                20277758                       # Cumulative count of insts written-back (Count)
system.cpu.iew.producerInst                   7948075                       # Number of instructions producing a value (Count)
system.cpu.iew.consumerInst                  10852573                       # Number of instructions consuming a value (Count)
system.cpu.iew.wbRate                        0.114840                       # Insts written-back per cycle ((Count/Cycle))
system.cpu.iew.wbFanout                      0.732368                       # Average fanout of values written-back ((Count/Count))
system.cpu.interrupts.clk_domain.clock           8000                       # Clock period in ticks (Tick)
system.cpu.itb_walker_cache.blockedCycles::no_mshrs            0                       # number of cycles access was blocked (Cycle)
system.cpu.itb_walker_cache.blockedCycles::no_targets            0                       # number of cycles access was blocked (Cycle)
system.cpu.itb_walker_cache.blockedCauses::no_mshrs            0                       # number of times access was blocked (Count)
system.cpu.itb_walker_cache.blockedCauses::no_targets            0                       # number of times access was blocked (Count)
system.cpu.itb_walker_cache.avgBlocked::no_mshrs          nan                       # average number of cycles each access was blocked ((Cycle/Count))
system.cpu.itb_walker_cache.avgBlocked::no_targets          nan                       # average number of cycles each access was blocked ((Cycle/Count))
system.cpu.itb_walker_cache.replacements            0                       # number of replacements (Count)
system.cpu.itb_walker_cache.power_state.pwrStateResidencyTicks::UNDEFINED  88286915500                       # Cumulative time (in ticks) in various power states (Tick)
system.cpu.itb_walker_cache.tags.tagsInUse            0                       # Average ticks per tags in use ((Tick/Count))
system.cpu.itb_walker_cache.tags.totalRefs            0                       # Total number of references to valid blocks. (Count)
system.cpu.itb_walker_cache.tags.sampledRefs            0                       # Sample count of references to valid blocks. (Count)
system.cpu.itb_walker_cache.tags.avgRefs          nan                       # Average number of references to valid blocks. ((Count/Count))
system.cpu.itb_walker_cache.tags.warmupTick            0                       # The tick when the warmup percentage was hit. (Tick)
system.cpu.itb_walker_cache.tags.tagAccesses            0                       # Number of tag accesses (Count)
system.cpu.itb_walker_cache.tags.dataAccesses            0                       # Number of data accesses (Count)
system.cpu.itb_walker_cache.tags.power_state.pwrStateResidencyTicks::UNDEFINED  88286915500                       # Cumulative time (in ticks) in various power states (Tick)
system.cpu.lsq0.forwLoads                        8742                       # Number of loads that had data forwarded from stores (Count)
system.cpu.lsq0.squashedLoads                  141183                       # Number of loads squashed (Count)
system.cpu.lsq0.ignoredResponses                   49                       # Number of memory responses ignored because the instruction is squashed (Count)
system.cpu.lsq0.memOrderViolation                  61                       # Number of memory ordering violations (Count)
system.cpu.lsq0.squashedStores                 735493                       # Number of stores squashed (Count)
system.cpu.lsq0.rescheduledLoads                    0                       # Number of loads that were rescheduled (Count)
system.cpu.lsq0.blockedByCache                    313                       # Number of times an access to memory failed due to the cache being blocked (Count)
system.cpu.lsq0.loadToUse::samples             200672                       # Distribution of cycle latency between the first time a load is issued and its completion (Unspecified)
system.cpu.lsq0.loadToUse::mean              6.464664                       # Distribution of cycle latency between the first time a load is issued and its completion (Unspecified)
system.cpu.lsq0.loadToUse::stdev            21.837780                       # Distribution of cycle latency between the first time a load is issued and its completion (Unspecified)
system.cpu.lsq0.loadToUse::0-9                 195098     97.22%     97.22% # Distribution of cycle latency between the first time a load is issued and its completion (Unspecified)
system.cpu.lsq0.loadToUse::10-19                  281      0.14%     97.36% # Distribution of cycle latency between the first time a load is issued and its completion (Unspecified)
system.cpu.lsq0.loadToUse::20-29                  120      0.06%     97.42% # Distribution of cycle latency between the first time a load is issued and its completion (Unspecified)
system.cpu.lsq0.loadToUse::30-39                   86      0.04%     97.47% # Distribution of cycle latency between the first time a load is issued and its completion (Unspecified)
system.cpu.lsq0.loadToUse::40-49                  139      0.07%     97.53% # Distribution of cycle latency between the first time a load is issued and its completion (Unspecified)
system.cpu.lsq0.loadToUse::50-59                   89      0.04%     97.58% # Distribution of cycle latency between the first time a load is issued and its completion (Unspecified)
system.cpu.lsq0.loadToUse::60-69                  123      0.06%     97.64% # Distribution of cycle latency between the first time a load is issued and its completion (Unspecified)
system.cpu.lsq0.loadToUse::70-79                  168      0.08%     97.72% # Distribution of cycle latency between the first time a load is issued and its completion (Unspecified)
system.cpu.lsq0.loadToUse::80-89                  349      0.17%     97.90% # Distribution of cycle latency between the first time a load is issued and its completion (Unspecified)
[...]
system.mem_ctrls.dram.perBankWrBursts::1        81061                       # Per bank write bursts (Count)
system.mem_ctrls.dram.perBankWrBursts::2        81134                       # Per bank write bursts (Count)
system.mem_ctrls.dram.perBankWrBursts::3        81119                       # Per bank write bursts (Count)
system.mem_ctrls.dram.perBankWrBursts::4        81093                       # Per bank write bursts (Count)
system.mem_ctrls.dram.perBankWrBursts::5        81208                       # Per bank write bursts (Count)
system.mem_ctrls.dram.perBankWrBursts::6        81103                       # Per bank write bursts (Count)
system.mem_ctrls.dram.perBankWrBursts::7        81015                       # Per bank write bursts (Count)
system.mem_ctrls.dram.perBankWrBursts::8        80998                       # Per bank write bursts (Count)
system.mem_ctrls.dram.perBankWrBursts::9        80965                       # Per bank write bursts (Count)
system.mem_ctrls.dram.perBankWrBursts::10        81065                       # Per bank write bursts (Count)
system.mem_ctrls.dram.perBankWrBursts::11        81061                       # Per bank write bursts (Count)
system.mem_ctrls.dram.perBankWrBursts::12        81111                       # Per bank write bursts (Count)
system.mem_ctrls.dram.perBankWrBursts::13        80978                       # Per bank write bursts (Count)
system.mem_ctrls.dram.perBankWrBursts::14        81050                       # Per bank write bursts (Count)
system.mem_ctrls.dram.perBankWrBursts::15        81052                       # Per bank write bursts (Count)
system.mem_ctrls.dram.totQLat             12375199000                       # Total ticks spent queuing (Tick)
system.mem_ctrls.dram.totBusLat            6503825000                       # Total ticks spent in databus transfers (Tick)
system.mem_ctrls.dram.totMemAccLat        36764542750                       # Total ticks spent from burst creation until serviced by the DRAM (Tick)
system.mem_ctrls.dram.avgQLat                 9513.79                       # Average queueing delay per DRAM burst ((Tick/Count))
system.mem_ctrls.dram.avgBusLat               5000.00                       # Average bus latency per DRAM burst ((Tick/Count))
system.mem_ctrls.dram.avgMemAccLat           28263.79                       # Average memory access latency per DRAM burst ((Tick/Count))
system.mem_ctrls.dram.readRowHits             1208386                       # Number of row buffer hits during reads (Count)
system.mem_ctrls.dram.writeRowHits            1205931                       # Number of row buffer hits during writes (Count)
system.mem_ctrls.dram.readRowHitRate            92.90                       # Row buffer hit rate for reads (Ratio)
system.mem_ctrls.dram.writeRowHitRate           92.98                       # Row buffer hit rate for writes (Ratio)
system.mem_ctrls.dram.bytesPerActivate::samples       183377                       # Bytes accessed per row activation (Byte)
system.mem_ctrls.dram.bytesPerActivate::mean   906.615421                       # Bytes accessed per row activation (Byte)
system.mem_ctrls.dram.bytesPerActivate::gmean   826.407236                       # Bytes accessed per row activation (Byte)
system.mem_ctrls.dram.bytesPerActivate::stdev   256.234820                       # Bytes accessed per row activation (Byte)
system.mem_ctrls.dram.bytesPerActivate::0-127         3404      1.86%      1.86% # Bytes accessed per row activation (Byte)
system.mem_ctrls.dram.bytesPerActivate::128-255         5844      3.19%      5.04% # Bytes accessed per row activation (Byte)
system.mem_ctrls.dram.bytesPerActivate::256-383         5233      2.85%      7.90% # Bytes accessed per row activation (Byte)
system.mem_ctrls.dram.bytesPerActivate::384-511         5402      2.95%     10.84% # Bytes accessed per row activation (Byte)
system.mem_ctrls.dram.bytesPerActivate::512-639         5922      3.23%     14.07% # Bytes accessed per row activation (Byte)
system.mem_ctrls.dram.bytesPerActivate::640-767         5228      2.85%     16.92% # Bytes accessed per row activation (Byte)
system.mem_ctrls.dram.bytesPerActivate::768-895         4583      2.50%     19.42% # Bytes accessed per row activation (Byte)
system.mem_ctrls.dram.bytesPerActivate::896-1023         4562      2.49%     21.91% # Bytes accessed per row activation (Byte)
system.mem_ctrls.dram.bytesPerActivate::1024-1151       143199     78.09%    100.00% # Bytes accessed per row activation (Byte)
system.mem_ctrls.dram.bytesPerActivate::total       183377                       # Bytes accessed per row activation (Byte)
system.mem_ctrls.dram.bytesRead              83248960                       # Total bytes read (Byte)
system.mem_ctrls.dram.bytesWritten           83003456                       # Total bytes written (Byte)
system.mem_ctrls.dram.avgRdBW              942.936556                       # Average DRAM read bandwidth in MiBytes/s ((Byte/Second))
system.mem_ctrls.dram.avgWrBW              940.155804                       # Average DRAM write bandwidth in MiBytes/s ((Byte/Second))
system.mem_ctrls.dram.peakBW                 12800.00                       # Theoretical peak bandwidth in MiByte/s ((Byte/Second))
system.mem_ctrls.dram.busUtil                   14.71                       # Data bus utilization in percentage (Ratio)
system.mem_ctrls.dram.busUtilRead                7.37                       # Data bus utilization in percentage for reads (Ratio)
system.mem_ctrls.dram.busUtilWrite               7.34                       # Data bus utilization in percentage for writes (Ratio)
system.mem_ctrls.dram.pageHitRate               92.94                       # Row buffer hit rate, read and write combined (Ratio)
system.mem_ctrls.dram.power_state.pwrStateResidencyTicks::UNDEFINED  88286915500                       # Cumulative time (in ticks) in various power states (Tick)
system.mem_ctrls.dram.rank0.actEnergy       654795120                       # Energy for activate commands per rank (pJ) (Joule)
system.mem_ctrls.dram.rank0.preEnergy       348031860                       # Energy for precharge commands per rank (pJ) (Joule)
system.mem_ctrls.dram.rank0.readEnergy     4642206660                       # Energy for read commands per rank (pJ) (Joule)
system.mem_ctrls.dram.rank0.writeEnergy    3385947780                       # Energy for write commands per rank (pJ) (Joule)
system.mem_ctrls.dram.rank0.refreshEnergy 6968788320.000001                       # Energy for refresh commands per rank (pJ) (Joule)
system.mem_ctrls.dram.rank0.actBackEnergy  30769814100                       # Energy for active background per rank (pJ) (Joule)
system.mem_ctrls.dram.rank0.preBackEnergy   7990753440                       # Energy for precharge background per rank (pJ) (Joule)
system.mem_ctrls.dram.rank0.actPowerDownEnergy            0                       # Energy for active power-down per rank (pJ) (Joule)
system.mem_ctrls.dram.rank0.prePowerDownEnergy            0                       # Energy for precharge power-down per rank (pJ) (Joule)
system.mem_ctrls.dram.rank0.selfRefreshEnergy            0                       # Energy for self refresh per rank (pJ) (Joule)
system.mem_ctrls.dram.rank0.totalEnergy   54760337280                       # Total energy per rank (pJ) (Joule)
system.mem_ctrls.dram.rank0.averagePower   620.254281                       # Core power per rank (mW) (Watt)
system.mem_ctrls.dram.rank0.totalIdleTime            0                       # Total Idle time Per DRAM Rank (Tick)
system.mem_ctrls.dram.rank0.pwrStateTime::IDLE  19925610250                       # Time in different power states (Tick)
system.mem_ctrls.dram.rank0.pwrStateTime::REF   2947880000                       # Time in different power states (Tick)
system.mem_ctrls.dram.rank0.pwrStateTime::SREF            0                       # Time in different power states (Tick)
system.mem_ctrls.dram.rank0.pwrStateTime::PRE_PDN            0                       # Time in different power states (Tick)
system.mem_ctrls.dram.rank0.pwrStateTime::ACT  65413425250                       # Time in different power states (Tick)
system.mem_ctrls.dram.rank0.pwrStateTime::ACT_PDN            0                       # Time in different power states (Tick)
system.mem_ctrls.dram.rank1.actEnergy       654516660                       # Energy for activate commands per rank (pJ) (Joule)
system.mem_ctrls.dram.rank1.preEnergy       347880060                       # Energy for precharge commands per rank (pJ) (Joule)
system.mem_ctrls.dram.rank1.readEnergy     4645255440                       # Energy for read commands per rank (pJ) (Joule)
system.mem_ctrls.dram.rank1.writeEnergy    3384021600                       # Energy for write commands per rank (pJ) (Joule)
system.mem_ctrls.dram.rank1.refreshEnergy 6968788320.000001                       # Energy for refresh commands per rank (pJ) (Joule)
system.mem_ctrls.dram.rank1.actBackEnergy  30767406420                       # Energy for active background per rank (pJ) (Joule)
system.mem_ctrls.dram.rank1.preBackEnergy   7992780960                       # Energy for precharge background per rank (pJ) (Joule)
system.mem_ctrls.dram.rank1.actPowerDownEnergy            0                       # Energy for active power-down per rank (pJ) (Joule)
system.mem_ctrls.dram.rank1.prePowerDownEnergy            0                       # Energy for precharge power-down per rank (pJ) (Joule)
system.mem_ctrls.dram.rank1.selfRefreshEnergy            0                       # Energy for self refresh per rank (pJ) (Joule)
system.mem_ctrls.dram.rank1.totalEnergy   54760649460                       # Total energy per rank (pJ) (Joule)
system.mem_ctrls.dram.rank1.averagePower   620.257817                       # Core power per rank (mW) (Watt)
system.mem_ctrls.dram.rank1.totalIdleTime            0                       # Total Idle time Per DRAM Rank (Tick)
system.mem_ctrls.dram.rank1.pwrStateTime::IDLE  19929343500                       # Time in different power states (Tick)
system.mem_ctrls.dram.rank1.pwrStateTime::REF   2947880000                       # Time in different power states (Tick)
system.mem_ctrls.dram.rank1.pwrStateTime::SREF            0                       # Time in different power states (Tick)
system.mem_ctrls.dram.rank1.pwrStateTime::PRE_PDN            0                       # Time in different power states (Tick)
system.mem_ctrls.dram.rank1.pwrStateTime::ACT  65409692000                       # Time in different power states (Tick)
system.mem_ctrls.dram.rank1.pwrStateTime::ACT_PDN            0                       # Time in different power states (Tick)
system.mem_ctrls.power_state.pwrStateResidencyTicks::UNDEFINED  88286915500                       # Cumulative time (in ticks) in various power states (Tick)
system.membus.transDist::ReadResp                3345                       # Transaction distribution (Count)
system.membus.transDist::WritebackDirty       1296503                       # Transaction distribution (Count)
system.membus.transDist::WritebackClean           446                       # Transaction distribution (Count)
system.membus.transDist::CleanEvict              2309                       # Transaction distribution (Count)
system.membus.transDist::ReadExReq            1297435                       # Transaction distribution (Count)
system.membus.transDist::ReadExResp           1297434                       # Transaction distribution (Count)
system.membus.transDist::ReadCleanReq             943                       # Transaction distribution (Count)
system.membus.transDist::ReadSharedReq           2402                       # Transaction distribution (Count)
system.membus.pktCount_system.cpu.icache.mem_side_port::system.mem_ctrls.port         2332                       # Packet count per connected requestor and responder (Count)
system.membus.pktCount_system.cpu.icache.mem_side_port::total         2332                       # Packet count per connected requestor and responder (Count)
system.membus.pktCount_system.cpu.dcache.mem_side_port::system.mem_ctrls.port      3898485                       # Packet count per connected requestor and responder (Count)
system.membus.pktCount_system.cpu.dcache.mem_side_port::total      3898485                       # Packet count per connected requestor and responder (Count)
system.membus.pktCount::total                 3900817                       # Packet count per connected requestor and responder (Count)
system.membus.pktSize_system.cpu.icache.mem_side_port::system.mem_ctrls.port        88896                       # Cumulative packet size per connected requestor and responder (Byte)
system.membus.pktSize_system.cpu.icache.mem_side_port::total        88896                       # Cumulative packet size per connected requestor and responder (Byte)
system.membus.pktSize_system.cpu.dcache.mem_side_port::system.mem_ctrls.port    166165696                       # Cumulative packet size per connected requestor and responder (Byte)
system.membus.pktSize_system.cpu.dcache.mem_side_port::total    166165696                       # Cumulative packet size per connected requestor and responder (Byte)
system.membus.pktSize::total                166254592                       # Cumulative packet size per connected requestor and responder (Byte)
system.membus.snoops                                0                       # Total snoops (Count)
system.membus.snoopTraffic                          0                       # Total snoop traffic (Byte)
system.membus.snoopFanout::samples            1300780                       # Request fanout histogram (Count)
system.membus.snoopFanout::mean              0.000003                       # Request fanout histogram (Count)
system.membus.snoopFanout::stdev             0.001754                       # Request fanout histogram (Count)
system.membus.snoopFanout::underflows               0      0.00%      0.00% # Request fanout histogram (Count)
system.membus.snoopFanout::0                  1300776    100.00%    100.00% # Request fanout histogram (Count)
system.membus.snoopFanout::1                        4      0.00%    100.00% # Request fanout histogram (Count)
system.membus.snoopFanout::2                        0      0.00%    100.00% # Request fanout histogram (Count)
system.membus.snoopFanout::3                        0      0.00%    100.00% # Request fanout histogram (Count)
system.membus.snoopFanout::4                        0      0.00%    100.00% # Request fanout histogram (Count)
system.membus.snoopFanout::overflows                0      0.00%    100.00% # Request fanout histogram (Count)
system.membus.snoopFanout::min_value                0                       # Request fanout histogram (Count)
system.membus.snoopFanout::max_value                1                       # Request fanout histogram (Count)
system.membus.snoopFanout::total              1300780                       # Request fanout histogram (Count)
system.membus.power_state.pwrStateResidencyTicks::UNDEFINED  88286915500                       # Cumulative time (in ticks) in various power states (Tick)
system.membus.reqLayer2.occupancy          7788891500                       # Layer occupancy (ticks) (Tick)
system.membus.reqLayer2.utilization               0.1                       # Layer utilization (Ratio)
system.membus.respLayer1.occupancy            4999750                       # Layer occupancy (ticks) (Tick)
system.membus.respLayer1.utilization              0.0                       # Layer utilization (Ratio)
system.membus.respLayer2.occupancy         6842072000                       # Layer occupancy (ticks) (Tick)
system.membus.respLayer2.utilization              0.1                       # Layer utilization (Ratio)
system.membus.snoop_filter.totRequests        2600038                       # Total number of requests made to the snoop filter. (Count)
system.membus.snoop_filter.hitSingleRequests      1299258                       # Number of requests hitting in the snoop filter with a single holder of the requested data. (Count)
system.membus.snoop_filter.hitMultiRequests            4                       # Number of requests hitting in the snoop filter with multiple (>1) holders of the requested data. (Count)
system.membus.snoop_filter.totSnoops                0                       # Total number of snoops made to the snoop filter. (Count)
system.membus.snoop_filter.hitSingleSnoops            0                       # Number of snoops hitting in the snoop filter with a single holder of the requested data. (Count)
system.membus.snoop_filter.hitMultiSnoops            0                       # Number of snoops hitting in the snoop filter with multiple (>1) holders of the requested data. (Count)
system.voltage_domain.voltage                       1                       # Voltage in Volts (Volt)
system.workload.inst.arm                            0                       # number of arm instructions executed (Count)
system.workload.inst.quiesce                        0                       # number of quiesce instructions executed (Count)
system.cpu.loadValPred.constant_verification_unit.constLoadHits        98211                       # Number of loads marked constant that hit in the CVU CAM (Unspecified)
system.cpu.loadValPred.constant_verification_unit.constLoadMisses        41358                       # Number of loads marked constant that missed in the CVU CAM (Unspecified)
system.cpu.loadValPred.constant_verification_unit.numCAMReplacements        38492                       # Number of CVU CAM entries replaced (Unspecified)
system.cpu.loadValPred.constant_verification_unit.numLoadAccesses       139569                       # Number of loads marked constant which accessed the CVU (Unspecified)
system.cpu.loadValPred.constant_verification_unit.numStoreAccesses     10548138                       # Number of store instructions which accessed the CVU (Unspecified)
system.cpu.loadValPred.constant_verification_unit.numStoreHits         2940                       # Number of stores that hit in the CVU CAM (Unspecified)
system.cpu.loadValPred.constant_verification_unit.numStoreMisses     10545198                       # Number of stores that missed in the CVU CAM (Unspecified)
system.cpu.loadValPred.correctTotal            156783                       # Number predictions corrects for predictable verification (Unspecified)
system.cpu.loadValPred.numConstLoads           142313                       # Number of loads classified as constant (Unspecified)
system.cpu.loadValPred.numConstLoadsCorrect        98211                       # Number of constant loads correctly predicted (Unspecified)
system.cpu.loadValPred.numConstLoadsMispredicted        41358                       # Number of constant loads incorrectly predicted (Unspecified)
system.cpu.loadValPred.numConstValOne           11846                       # Number of constant loads with value 1 (Unspecified)
system.cpu.loadValPred.numConstValZero          25087                       # Number of constant loads with value 0 (Unspecified)
system.cpu.loadValPred.numPredictableLoads        51463                       # Number of loads classified as predictable (Unspecified)
system.cpu.loadValPred.numPredictableLoadsCorrect        41310                       # Number of loads correctly classified as predictable (Unspecified)
system.cpu.loadValPred.numPredictableLoadsIncorrect         8481                       # Number of loads incorrectly classified as predictable (Unspecified)
system.cpu.loadValPred.totalLoads              270250                       # Total loads processed by the Load value predictor (Unspecified)
system.cpu.loadValPred.valueLocalityNumerator       174434                       # Number predictions corrects (Unspecified)

---------- End Simulation Statistics   ----------
