
---------- Begin Simulation Statistics ----------
simSeconds                                   0.062570                       # Number of seconds simulated (Second)
simTicks                                  62570089000                       # Number of ticks simulated (Tick)
finalTick                                 62570089000                       # Number of ticks from beginning of simulation (restored from checkpoints and never reset) (Tick)
simFreq                                  1000000000000                       # The number of ticks per simulated second ((Tick/Second))
hostSeconds                                    224.70                       # Real time elapsed on the host (Second)
hostTickRate                                278463412                       # The number of ticks simulated per host second (ticks/s) ((Tick/Second))
hostMemory                                    8725432                       # Number of bytes of host memory used (Byte)
simInsts                                     10000000                       # Number of instructions simulated (Count)
simOps                                       14515873                       # Number of ops (including micro ops) simulated (Count)
hostInstRate                                    44504                       # Simulator instruction rate (inst/s) ((Count/Second))
hostOpRate                                      64602                       # Simulator op (including micro ops) rate (op/s) ((Count/Second))
system.clk_domain.clock                          1000                       # Clock period in ticks (Tick)
system.cpu.numCycles                        125140179                       # Number of cpu cycles simulated (Cycle)
system.cpu.numWorkItemsStarted                      0                       # Number of work items this cpu started (Count)
system.cpu.numWorkItemsCompleted                    0                       # Number of work items this cpu completed (Count)
system.cpu.instsAdded                        15612428                       # Number of instructions added to the IQ (excludes non-spec) (Count)
system.cpu.nonSpecInstsAdded                       74                       # Number of non-speculative instructions added to the IQ (Count)
system.cpu.instsIssued                       15530236                       # Number of instructions issued (Count)
system.cpu.squashedInstsIssued                   1021                       # Number of squashed instructions issued (Count)
system.cpu.squashedInstsExamined              1096625                       # Number of squashed instructions iterated over during squash; mainly for profiling (Count)
system.cpu.squashedOperandsExamined           1661261                       # Number of squashed operands that are examined and possibly removed from graph (Count)
system.cpu.squashedNonSpecRemoved                  29                       # Number of squashed non-spec instructions that were removed (Count)
system.cpu.numIssuedDist::samples           125077809                       # Number of insts issued each cycle (Count)
system.cpu.numIssuedDist::mean               0.124165                       # Number of insts issued each cycle (Count)
system.cpu.numIssuedDist::stdev              0.611739                       # Number of insts issued each cycle (Count)
system.cpu.numIssuedDist::underflows                0      0.00%      0.00% # Number of insts issued each cycle (Count)
system.cpu.numIssuedDist::0                 116198180     92.90%     92.90% # Number of insts issued each cycle (Count)
system.cpu.numIssuedDist::1                   6722264      5.37%     98.28% # Number of insts issued each cycle (Count)
system.cpu.numIssuedDist::2                    560704      0.45%     98.72% # Number of insts issued each cycle (Count)
system.cpu.numIssuedDist::3                    357160      0.29%     99.01% # Number of insts issued each cycle (Count)
system.cpu.numIssuedDist::4                    296508      0.24%     99.25% # Number of insts issued each cycle (Count)
system.cpu.numIssuedDist::5                    364344      0.29%     99.54% # Number of insts issued each cycle (Count)
system.cpu.numIssuedDist::6                    498810      0.40%     99.94% # Number of insts issued each cycle (Count)
system.cpu.numIssuedDist::7                     24240      0.02%     99.96% # Number of insts issued each cycle (Count)
system.cpu.numIssuedDist::8                     55599      0.04%    100.00% # Number of insts issued each cycle (Count)
system.cpu.numIssuedDist::overflows                 0      0.00%    100.00% # Number of insts issued each cycle (Count)
system.cpu.numIssuedDist::min_value                 0                       # Number of insts issued each cycle (Count)
system.cpu.numIssuedDist::max_value                 8                       # Number of insts issued each cycle (Count)
system.cpu.numIssuedDist::total             125077809                       # Number of insts issued each cycle (Count)
system.cpu.statFuBusy::No_OpClass                   0      0.00%      0.00% # attempts to use FU when none available (Count)
system.cpu.statFuBusy::IntAlu                    5476      5.14%      5.14% # attempts to use FU when none available (Count)
system.cpu.statFuBusy::IntMult                      0      0.00%      5.14% # attempts to use FU when none available (Count)
system.cpu.statFuBusy::IntDiv                       0      0.00%      5.14% # attempts to use FU when none available (Count)
system.cpu.statFuBusy::FloatAdd                     0      0.00%      5.14% # attempts to use FU when none available (Count)
system.cpu.statFuBusy::FloatCmp                     0      0.00%      5.14% # attempts to use FU when none available (Count)
system.cpu.statFuBusy::FloatCvt                     0      0.00%      5.14% # attempts to use FU when none available (Count)
system.cpu.statFuBusy::FloatMult                    0      0.00%      5.14% # attempts to use FU when none available (Count)
system.cpu.statFuBusy::FloatMultAcc                 0      0.00%      5.14% # attempts to use FU when none available (Count)
system.cpu.statFuBusy::FloatDiv                     0      0.00%      5.14% # attempts to use FU when none available (Count)
system.cpu.statFuBusy::FloatMisc                    0      0.00%      5.14% # attempts to use FU when none available (Count)
system.cpu.statFuBusy::FloatSqrt                    0      0.00%      5.14% # attempts to use FU when none available (Count)
system.cpu.statFuBusy::SimdAdd                      0      0.00%      5.14% # attempts to use FU when none available (Count)
system.cpu.statFuBusy::SimdAddAcc                   0      0.00%      5.14% # attempts to use FU when none available (Count)
system.cpu.statFuBusy::SimdAlu                      0      0.00%      5.14% # attempts to use FU when none available (Count)
system.cpu.statFuBusy::SimdCmp                      0      0.00%      5.14% # attempts to use FU when none available (Count)
system.cpu.statFuBusy::SimdCvt                      4      0.00%      5.14% # attempts to use FU when none available (Count)
system.cpu.statFuBusy::SimdMisc                     3      0.00%      5.15% # attempts to use FU when none available (Count)
system.cpu.statFuBusy::SimdMult                     0      0.00%      5.15% # attempts to use FU when none available (Count)
system.cpu.statFuBusy::SimdMultAcc                  0      0.00%      5.15% # attempts to use FU when none available (Count)
system.cpu.statFuBusy::SimdShift                    0      0.00%      5.15% # attempts to use FU when none available (Count)
system.cpu.statFuBusy::SimdShiftAcc                 0      0.00%      5.15% # attempts to use FU when none available (Count)
system.cpu.statFuBusy::SimdDiv                      0      0.00%      5.15% # attempts to use FU when none available (Count)
system.cpu.statFuBusy::SimdSqrt                     0      0.00%      5.15% # attempts to use FU when none available (Count)
system.cpu.statFuBusy::SimdFloatAdd                 0      0.00%      5.15% # attempts to use FU when none available (Count)
system.cpu.statFuBusy::SimdFloatAlu                 0      0.00%      5.15% # attempts to use FU when none available (Count)
system.cpu.statFuBusy::SimdFloatCmp                 0      0.00%      5.15% # attempts to use FU when none available (Count)
system.cpu.statFuBusy::SimdFloatCvt                 0      0.00%      5.15% # attempts to use FU when none available (Count)
system.cpu.statFuBusy::SimdFloatDiv                 0      0.00%      5.15% # attempts to use FU when none available (Count)
system.cpu.statFuBusy::SimdFloatMisc                0      0.00%      5.15% # attempts to use FU when none available (Count)
system.cpu.statFuBusy::SimdFloatMult                0      0.00%      5.15% # attempts to use FU when none available (Count)
system.cpu.statFuBusy::SimdFloatMultAcc             0      0.00%      5.15% # attempts to use FU when none available (Count)
system.cpu.statFuBusy::SimdFloatSqrt                0      0.00%      5.15% # attempts to use FU when none available (Count)
system.cpu.statFuBusy::SimdReduceAdd                0      0.00%      5.15% # attempts to use FU when none available (Count)
system.cpu.statFuBusy::SimdReduceAlu                0      0.00%      5.15% # attempts to use FU when none available (Count)
system.cpu.statFuBusy::SimdReduceCmp                0      0.00%      5.15% # attempts to use FU when none available (Count)
system.cpu.statFuBusy::SimdFloatReduceAdd            0      0.00%      5.15% # attempts to use FU when none available (Count)
system.cpu.statFuBusy::SimdFloatReduceCmp            0      0.00%      5.15% # attempts to use FU when none available (Count)
system.cpu.statFuBusy::SimdAes                      0      0.00%      5.15% # attempts to use FU when none available (Count)
system.cpu.statFuBusy::SimdAesMix                   0      0.00%      5.15% # attempts to use FU when none available (Count)
system.cpu.statFuBusy::SimdSha1Hash                 0      0.00%      5.15% # attempts to use FU when none available (Count)
system.cpu.statFuBusy::SimdSha1Hash2                0      0.00%      5.15% # attempts to use FU when none available (Count)
system.cpu.statFuBusy::SimdSha256Hash               0      0.00%      5.15% # attempts to use FU when none available (Count)
system.cpu.statFuBusy::SimdSha256Hash2              0      0.00%      5.15% # attempts to use FU when none available (Count)
system.cpu.statFuBusy::SimdShaSigma2                0      0.00%      5.15% # attempts to use FU when none available (Count)
system.cpu.statFuBusy::SimdShaSigma3                0      0.00%      5.15% # attempts to use FU when none available (Count)
system.cpu.statFuBusy::SimdPredAlu                  0      0.00%      5.15% # attempts to use FU when none available (Count)
system.cpu.statFuBusy::MemRead                    727      0.68%      5.83% # attempts to use FU when none available (Count)
system.cpu.statFuBusy::MemWrite                 15021     14.10%     19.93% # attempts to use FU when none available (Count)
system.cpu.statFuBusy::FloatMemRead             14230     13.36%     33.29% # attempts to use FU when none available (Count)
system.cpu.statFuBusy::FloatMemWrite            71061     66.71%    100.00% # attempts to use FU when none available (Count)
system.cpu.statFuBusy::IprAccess                    0      0.00%    100.00% # attempts to use FU when none available (Count)
system.cpu.statFuBusy::InstPrefetch                 0      0.00%    100.00% # attempts to use FU when none available (Count)
system.cpu.statIssuedInstType_0::No_OpClass         1944      0.01%      0.01% # Number of instructions issued per FU type, per thread (Count)
system.cpu.statIssuedInstType_0::IntAlu       5372725     34.60%     34.61% # Number of instructions issued per FU type, per thread (Count)
system.cpu.statIssuedInstType_0::IntMult           70      0.00%     34.61% # Number of instructions issued per FU type, per thread (Count)
system.cpu.statIssuedInstType_0::IntDiv          1851      0.01%     34.62% # Number of instructions issued per FU type, per thread (Count)
system.cpu.statIssuedInstType_0::FloatAdd      1162461      7.49%     42.11% # Number of instructions issued per FU type, per thread (Count)
system.cpu.statIssuedInstType_0::FloatCmp            0      0.00%     42.11% # Number of instructions issued per FU type, per thread (Count)
system.cpu.statIssuedInstType_0::FloatCvt           80      0.00%     42.11% # Number of instructions issued per FU type, per thread (Count)
system.cpu.statIssuedInstType_0::FloatMult            0      0.00%     42.11% # Number of instructions issued per FU type, per thread (Count)
system.cpu.statIssuedInstType_0::FloatMultAcc            0      0.00%     42.11% # Number of instructions issued per FU type, per thread (Count)
system.cpu.statIssuedInstType_0::FloatDiv            0      0.00%     42.11% # Number of instructions issued per FU type, per thread (Count)
system.cpu.statIssuedInstType_0::FloatMisc            0      0.00%     42.11% # Number of instructions issued per FU type, per thread (Count)
system.cpu.statIssuedInstType_0::FloatSqrt            0      0.00%     42.11% # Number of instructions issued per FU type, per thread (Count)
system.cpu.statIssuedInstType_0::SimdAdd            0      0.00%     42.11% # Number of instructions issued per FU type, per thread (Count)
system.cpu.statIssuedInstType_0::SimdAddAcc            0      0.00%     42.11% # Number of instructions issued per FU type, per thread (Count)
system.cpu.statIssuedInstType_0::SimdAlu           34      0.00%     42.11% # Number of instructions issued per FU type, per thread (Count)
system.cpu.statIssuedInstType_0::SimdCmp            0      0.00%     42.11% # Number of instructions issued per FU type, per thread (Count)
system.cpu.statIssuedInstType_0::SimdCvt          130      0.00%     42.11% # Number of instructions issued per FU type, per thread (Count)
system.cpu.statIssuedInstType_0::SimdMisc          209      0.00%     42.11% # Number of instructions issued per FU type, per thread (Count)
system.cpu.statIssuedInstType_0::SimdMult            0      0.00%     42.11% # Number of instructions issued per FU type, per thread (Count)
system.cpu.statIssuedInstType_0::SimdMultAcc            0      0.00%     42.11% # Number of instructions issued per FU type, per thread (Count)
system.cpu.statIssuedInstType_0::SimdShift            0      0.00%     42.11% # Number of instructions issued per FU type, per thread (Count)
system.cpu.statIssuedInstType_0::SimdShiftAcc            0      0.00%     42.11% # Number of instructions issued per FU type, per thread (Count)
system.cpu.statIssuedInstType_0::SimdDiv            0      0.00%     42.11% # Number of instructions issued per FU type, per thread (Count)
system.cpu.statIssuedInstType_0::SimdSqrt            0      0.00%     42.11% # Number of instructions issued per FU type, per thread (Count)
system.cpu.statIssuedInstType_0::SimdFloatAdd            0      0.00%     42.11% # Number of instructions issued per FU type, per thread (Count)
system.cpu.statIssuedInstType_0::SimdFloatAlu            0      0.00%     42.11% # Number of instructions issued per FU type, per thread (Count)
system.cpu.statIssuedInstType_0::SimdFloatCmp            0      0.00%     42.11% # Number of instructions issued per FU type, per thread (Count)
system.cpu.statIssuedInstType_0::SimdFloatCvt            0      0.00%     42.11% # Number of instructions issued per FU type, per thread (Count)
system.cpu.statIssuedInstType_0::SimdFloatDiv            0      0.00%     42.11% # Number of instructions issued per FU type, per thread (Count)
system.cpu.statIssuedInstType_0::SimdFloatMisc            0      0.00%     42.11% # Number of instructions issued per FU type, per thread (Count)
system.cpu.statIssuedInstType_0::SimdFloatMult            0      0.00%     42.11% # Number of instructions issued per FU type, per thread (Count)
system.cpu.statIssuedInstType_0::SimdFloatMultAcc            0      0.00%     42.11% # Number of instructions issued per FU type, per thread (Count)
system.cpu.statIssuedInstType_0::SimdFloatSqrt            0      0.00%     42.11% # Number of instructions issued per FU type, per thread (Count)
system.cpu.statIssuedInstType_0::SimdReduceAdd            0      0.00%     42.11% # Number of instructions issued per FU type, per thread (Count)
system.cpu.statIssuedInstType_0::SimdReduceAlu            0      0.00%     42.11% # Number of instructions issued per FU type, per thread (Count)
system.cpu.statIssuedInstType_0::SimdReduceCmp            0      0.00%     42.11% # Number of instructions issued per FU type, per thread (Count)
system.cpu.statIssuedInstType_0::SimdFloatReduceAdd            0      0.00%     42.11% # Number of instructions issued per FU type, per thread (Count)
system.cpu.statIssuedInstType_0::SimdFloatReduceCmp            0      0.00%     42.11% # Number of instructions issued per FU type, per thread (Count)
system.cpu.statIssuedInstType_0::SimdAes            0      0.00%     42.11% # Number of instructions issued per FU type, per thread (Count)
system.cpu.statIssuedInstType_0::SimdAesMix            0      0.00%     42.11% # Number of instructions issued per FU type, per thread (Count)
system.cpu.statIssuedInstType_0::SimdSha1Hash            0      0.00%     42.11% # Number of instructions issued per FU type, per thread (Count)
system.cpu.statIssuedInstType_0::SimdSha1Hash2            0      0.00%     42.11% # Number of instructions issued per FU type, per thread (Count)
system.cpu.statIssuedInstType_0::SimdSha256Hash            0      0.00%     42.11% # Number of instructions issued per FU type, per thread (Count)
system.cpu.statIssuedInstType_0::SimdSha256Hash2            0      0.00%     42.11% # Number of instructions issued per FU type, per thread (Count)
system.cpu.statIssuedInstType_0::SimdShaSigma2            0      0.00%     42.11% # Number of instructions issued per FU type, per thread (Count)
system.cpu.statIssuedInstType_0::SimdShaSigma3            0      0.00%     42.11% # Number of instructions issued per FU type, per thread (Count)
system.cpu.statIssuedInstType_0::SimdPredAlu            0      0.00%     42.11% # Number of instructions issued per FU type, per thread (Count)
system.cpu.statIssuedInstType_0::MemRead        74959      0.48%     42.59% # Number of instructions issued per FU type, per thread (Count)
system.cpu.statIssuedInstType_0::MemWrite       414755      2.67%     45.26% # Number of instructions issued per FU type, per thread (Count)
system.cpu.statIssuedInstType_0::FloatMemRead      1162640      7.49%     52.75% # Number of instructions issued per FU type, per thread (Count)
system.cpu.statIssuedInstType_0::FloatMemWrite      7338378     47.25%    100.00% # Number of instructions issued per FU type, per thread (Count)
system.cpu.statIssuedInstType_0::IprAccess            0      0.00%    100.00% # Number of instructions issued per FU type, per thread (Count)
system.cpu.statIssuedInstType_0::InstPrefetch            0      0.00%    100.00% # Number of instructions issued per FU type, per thread (Count)
system.cpu.statIssuedInstType_0::total       15530236                       # Number of instructions issued per FU type, per thread (Count)
system.cpu.issueRate                         0.124103                       # Inst issue rate ((Count/Cycle))
system.cpu.fuBusy                              106522                       # FU busy when requested (Count)
system.cpu.fuBusyRate                        0.006859                       # FU busy rate (busy events/executed inst) ((Count/Count))
system.cpu.intInstQueueReads                136832508                       # Number of integer instruction queue reads (Count)
system.cpu.intInstQueueWrites                 6476676                       # Number of integer instruction queue writes (Count)
system.cpu.intInstQueueWakeupAccesses         5816260                       # Number of integer instruction queue wakeup accesses (Count)
system.cpu.fpInstQueueReads                  19413316                       # Number of floating instruction queue reads (Count)
system.cpu.fpInstQueueWrites                 10232541                       # Number of floating instruction queue writes (Count)
system.cpu.fpInstQueueWakeupAccesses          9408223                       # Number of floating instruction queue wakeup accesses (Count)
system.cpu.vecInstQueueReads                        0                       # Number of vector instruction queue reads (Count)
system.cpu.vecInstQueueWrites                       0                       # Number of vector instruction queue writes (Count)
system.cpu.vecInstQueueWakeupAccesses               0                       # Number of vector instruction queue wakeup accesses (Count)
system.cpu.intAluAccesses                     5885507                       # Number of integer alu accesses (Count)
system.cpu.fpAluAccesses                      9749307                       # Number of floating point alu accesses (Count)
system.cpu.vecAluAccesses                           0                       # Number of vector alu accesses (Count)
system.cpu.numInsts                          15519679                       # Number of executed instructions (Count)
system.cpu.numLoadInsts                       1235350                       # Number of load instructions executed (Count)
system.cpu.numSquashedInsts                     10557                       # Number of squashed instructions skipped in execute (Count)
system.cpu.numSwp                                   0                       # Number of swp insts executed (Count)
system.cpu.numNop                                   0                       # Number of nop insts executed (Count)
system.cpu.numRefs                            8987864                       # Number of memory reference insts executed (Count)
system.cpu.numBranches                         430012                       # Number of branches executed (Count)
system.cpu.numStoreInsts                      7752514                       # Number of stores executed (Count)
system.cpu.numRate                           0.124018                       # Inst execution rate ((Count/Cycle))
system.cpu.timesIdled                             705                       # Number of times that the entire CPU went into an idle state and unscheduled itself (Count)
system.cpu.idleCycles                           62370                       # Total number of cycles that the CPU has spent unscheduled due to idling (Cycle)
system.cpu.committedInsts                    10000000                       # Number of Instructions Simulated (Count)
system.cpu.committedOps                      14515873                       # Number of Ops (including micro ops) Simulated (Count)
system.cpu.cpi                              12.514018                       # CPI: Cycles Per Instruction ((Cycle/Count))
system.cpu.totalCpi                         12.514018                       # CPI: Total CPI of All Threads ((Cycle/Count))
system.cpu.ipc                               0.079910                       # IPC: Instructions Per Cycle ((Count/Cycle))
system.cpu.totalIpc                          0.079910                       # IPC: Total IPC of All Threads ((Count/Cycle))
system.cpu.intRegfileReads                   12998605                       # Number of integer regfile reads (Count)
system.cpu.intRegfileWrites                   4584717                       # Number of integer regfile writes (Count)
system.cpu.fpRegfileReads                     8501999                       # Number of floating regfile reads (Count)
system.cpu.fpRegfileWrites                    2325413                       # Number of floating regfile writes (Count)
system.cpu.ccRegfileReads                     2160309                       # number of cc regfile reads (Count)
system.cpu.ccRegfileWrites                    2477900                       # number of cc regfile writes (Count)
system.cpu.miscRegfileReads                  11022569                       # number of misc regfile reads (Count)
system.cpu.miscRegfileWrites                       45                       # number of misc regfile writes (Count)
system.cpu.MemDepUnit__0.insertedLoads        1245517                       # Number of loads inserted to the mem dependence unit. (Count)
system.cpu.MemDepUnit__0.insertedStores       7755649                       # Number of stores inserted to the mem dependence unit. (Count)
system.cpu.MemDepUnit__0.conflictingLoads         1477                       # Number of conflicting loads. (Count)
system.cpu.MemDepUnit__0.conflictingStores          760                       # Number of conflicting stores. (Count)
system.cpu.MemDepUnit__1.insertedLoads              0                       # Number of loads inserted to the mem dependence unit. (Count)
system.cpu.MemDepUnit__1.insertedStores             0                       # Number of stores inserted to the mem dependence unit. (Count)
system.cpu.MemDepUnit__1.conflictingLoads            0                       # Number of conflicting loads. (Count)
system.cpu.MemDepUnit__1.conflictingStores            0                       # Number of conflicting stores. (Count)
system.cpu.MemDepUnit__2.insertedLoads              0                       # Number of loads inserted to the mem dependence unit. (Count)
system.cpu.MemDepUnit__2.insertedStores             0                       # Number of stores inserted to the mem dependence unit. (Count)
system.cpu.MemDepUnit__2.conflictingLoads            0                       # Number of conflicting loads. (Count)
system.cpu.MemDepUnit__2.conflictingStores            0                       # Number of conflicting stores. (Count)
system.cpu.MemDepUnit__3.insertedLoads              0                       # Number of loads inserted to the mem dependence unit. (Count)
system.cpu.MemDepUnit__3.insertedStores             0                       # Number of stores inserted to the mem dependence unit. (Count)
system.cpu.MemDepUnit__3.conflictingLoads            0                       # Number of conflicting loads. (Count)
system.cpu.MemDepUnit__3.conflictingStores            0                       # Number of conflicting stores. (Count)
system.cpu.branchPred.lookups                  487489                       # Number of BP lookups (Count)
system.cpu.branchPred.condPredicted            476695                       # Number of conditional branches predicted (Count)
system.cpu.branchPred.condIncorrect              5746                       # Number of conditional branches incorrect (Count)
system.cpu.branchPred.BTBLookups               447169                       # Number of BTB lookups (Count)
system.cpu.branchPred.BTBHits                  445021                       # Number of BTB hits (Count)
system.cpu.branchPred.BTBHitRatio            0.995196                       # BTB Hit Ratio (Ratio)
system.cpu.branchPred.RASUsed                    2564                       # Number of times the RAS was used to get a target. (Count)
system.cpu.branchPred.RASIncorrect                  3                       # Number of incorrect RAS predictions. (Count)
system.cpu.branchPred.indirectLookups             944                       # Number of indirect predictor lookups. (Count)
system.cpu.branchPred.indirectHits                178                       # Number of indirect target hits. (Count)
system.cpu.branchPred.indirectMisses              766                       # Number of indirect misses. (Count)
system.cpu.branchPred.indirectMispredicted          194                       # Number of mispredicted indirect branches. (Count)
system.cpu.commit.commitSquashedInsts         1079738                       # The number of squashed insts skipped by commit (Count)
system.cpu.commit.commitNonSpecStalls              45                       # The number of times commit has been forced to stall to communicate backwards (Count)
system.cpu.commit.branchMispredicts              5632                       # The number of times a branch was mispredicted (Count)
system.cpu.commit.numCommittedDist::samples    124926684                       # Number of insts commited each cycle (Count)
system.cpu.commit.numCommittedDist::mean     0.116195                       # Number of insts commited each cycle (Count)
system.cpu.commit.numCommittedDist::stdev     0.573745                       # Number of insts commited each cycle (Count)
system.cpu.commit.numCommittedDist::underflows            0      0.00%      0.00% # Number of insts commited each cycle (Count)
system.cpu.commit.numCommittedDist::0       116600764     93.34%     93.34% # Number of insts commited each cycle (Count)
system.cpu.commit.numCommittedDist::1         5830324      4.67%     98.00% # Number of insts commited each cycle (Count)
system.cpu.commit.numCommittedDist::2          897435      0.72%     98.72% # Number of insts commited each cycle (Count)
system.cpu.commit.numCommittedDist::3          774772      0.62%     99.34% # Number of insts commited each cycle (Count)
system.cpu.commit.numCommittedDist::4          116731      0.09%     99.43% # Number of insts commited each cycle (Count)
system.cpu.commit.numCommittedDist::5          410766      0.33%     99.76% # Number of insts commited each cycle (Count)
system.cpu.commit.numCommittedDist::6           83213      0.07%     99.83% # Number of insts commited each cycle (Count)
system.cpu.commit.numCommittedDist::7          155101      0.12%     99.95% # Number of insts commited each cycle (Count)
system.cpu.commit.numCommittedDist::8           57578      0.05%    100.00% # Number of insts commited each cycle (Count)
system.cpu.commit.numCommittedDist::overflows            0      0.00%    100.00% # Number of insts commited each cycle (Count)
system.cpu.commit.numCommittedDist::min_value            0                       # Number of insts commited each cycle (Count)
system.cpu.commit.numCommittedDist::max_value            8                       # Number of insts commited each cycle (Count)
system.cpu.commit.numCommittedDist::total    124926684                       # Number of insts commited each cycle (Count)
system.cpu.commit.instsCommitted             10000000                       # Number of instructions committed (Count)
system.cpu.commit.opsCommitted               14515873                       # Number of ops (including micro ops) committed (Count)
system.cpu.commit.memRefs                     8431165                       # Number of memory references committed (Count)
system.cpu.commit.loads                       1138291                       # Number of loads committed (Count)
system.cpu.commit.amos                              0                       # Number of atomic instructions committed (Count)
system.cpu.commit.membars                           0                       # Number of memory barriers committed (Count)
system.cpu.commit.branches                     403977                       # Number of branches committed (Count)
system.cpu.commit.vectorInstructions                0                       # Number of committed Vector instructions. (Count)
system.cpu.commit.floating                    9095507                       # Number of committed floating point instructions. (Count)
system.cpu.commit.integer                    13420548                       # Number of committed integer instructions. (Count)
system.cpu.commit.functionCalls                  1208                       # Number of function calls committed. (Count)
system.cpu.commit.committedInstType_0::No_OpClass          688      0.00%      0.00% # Class of committed instruction (Count)
system.cpu.commit.committedInstType_0::IntAlu      4990510     34.38%     34.38% # Class of committed instruction (Count)
system.cpu.commit.committedInstType_0::IntMult           44      0.00%     34.38% # Class of committed instruction (Count)
system.cpu.commit.committedInstType_0::IntDiv         1668      0.01%     34.40% # Class of committed instruction (Count)
system.cpu.commit.committedInstType_0::FloatAdd      1091411      7.52%     41.91% # Class of committed instruction (Count)
system.cpu.commit.committedInstType_0::FloatCmp            0      0.00%     41.91% # Class of committed instruction (Count)
system.cpu.commit.committedInstType_0::FloatCvt           80      0.00%     41.92% # Class of committed instruction (Count)
system.cpu.commit.committedInstType_0::FloatMult            0      0.00%     41.92% # Class of committed instruction (Count)
system.cpu.commit.committedInstType_0::FloatMultAcc            0      0.00%     41.92% # Class of committed instruction (Count)
system.cpu.commit.committedInstType_0::FloatDiv            0      0.00%     41.92% # Class of committed instruction (Count)
system.cpu.commit.committedInstType_0::FloatMisc            0      0.00%     41.92% # Class of committed instruction (Count)
system.cpu.commit.committedInstType_0::FloatSqrt            0      0.00%     41.92% # Class of committed instruction (Count)
system.cpu.commit.committedInstType_0::SimdAdd            0      0.00%     41.92% # Class of committed instruction (Count)
system.cpu.commit.committedInstType_0::SimdAddAcc            0      0.00%     41.92% # Class of committed instruction (Count)
system.cpu.commit.committedInstType_0::SimdAlu           24      0.00%     41.92% # Class of committed instruction (Count)
system.cpu.commit.committedInstType_0::SimdCmp            0      0.00%     41.92% # Class of committed instruction (Count)
system.cpu.commit.committedInstType_0::SimdCvt          102      0.00%     41.92% # Class of committed instruction (Count)
system.cpu.commit.committedInstType_0::SimdMisc          181      0.00%     41.92% # Class of committed instruction (Count)
system.cpu.commit.committedInstType_0::SimdMult            0      0.00%     41.92% # Class of committed instruction (Count)
system.cpu.commit.committedInstType_0::SimdMultAcc            0      0.00%     41.92% # Class of committed instruction (Count)
system.cpu.commit.committedInstType_0::SimdShift            0      0.00%     41.92% # Class of committed instruction (Count)
system.cpu.commit.committedInstType_0::SimdShiftAcc            0      0.00%     41.92% # Class of committed instruction (Count)
system.cpu.commit.committedInstType_0::SimdDiv            0      0.00%     41.92% # Class of committed instruction (Count)
system.cpu.commit.committedInstType_0::SimdSqrt            0      0.00%     41.92% # Class of committed instruction (Count)
system.cpu.commit.committedInstType_0::SimdFloatAdd            0      0.00%     41.92% # Class of committed instruction (Count)
system.cpu.commit.committedInstType_0::SimdFloatAlu            0      0.00%     41.92% # Class of committed instruction (Count)
system.cpu.commit.committedInstType_0::SimdFloatCmp            0      0.00%     41.92% # Class of committed instruction (Count)
system.cpu.commit.committedInstType_0::SimdFloatCvt            0      0.00%     41.92% # Class of committed instruction (Count)
system.cpu.commit.committedInstType_0::SimdFloatDiv            0      0.00%     41.92% # Class of committed instruction (Count)
system.cpu.commit.committedInstType_0::SimdFloatMisc            0      0.00%     41.92% # Class of committed instruction (Count)
system.cpu.commit.committedInstType_0::SimdFloatMult            0      0.00%     41.92% # Class of committed instruction (Count)
system.cpu.commit.committedInstType_0::SimdFloatMultAcc            0      0.00%     41.92% # Class of committed instruction (Count)
system.cpu.commit.committedInstType_0::SimdFloatSqrt            0      0.00%     41.92% # Class of committed instruction (Count)
system.cpu.commit.committedInstType_0::SimdReduceAdd            0      0.00%     41.92% # Class of committed instruction (Count)
system.cpu.commit.committedInstType_0::SimdReduceAlu            0      0.00%     41.92% # Class of committed instruction (Count)
system.cpu.commit.committedInstType_0::SimdReduceCmp            0      0.00%     41.92% # Class of committed instruction (Count)
system.cpu.commit.committedInstType_0::SimdFloatReduceAdd            0      0.00%     41.92% # Class of committed instruction (Count)
system.cpu.commit.committedInstType_0::SimdFloatReduceCmp            0      0.00%     41.92% # Class of committed instruction (Count)
system.cpu.commit.committedInstType_0::SimdAes            0      0.00%     41.92% # Class of committed instruction (Count)
system.cpu.commit.committedInstType_0::SimdAesMix            0      0.00%     41.92% # Class of committed instruction (Count)
system.cpu.commit.committedInstType_0::SimdSha1Hash            0      0.00%     41.92% # Class of committed instruction (Count)
system.cpu.commit.committedInstType_0::SimdSha1Hash2            0      0.00%     41.92% # Class of committed instruction (Count)
system.cpu.commit.committedInstType_0::SimdSha256Hash            0      0.00%     41.92% # Class of committed instruction (Count)
system.cpu.commit.committedInstType_0::SimdSha256Hash2            0      0.00%     41.92% # Class of committed instruction (Count)
system.cpu.commit.committedInstType_0::SimdShaSigma2            0      0.00%     41.92% # Class of committed instruction (Count)
system.cpu.commit.committedInstType_0::SimdShaSigma3            0      0.00%     41.92% # Class of committed instruction (Count)
system.cpu.commit.committedInstType_0::SimdPredAlu            0      0.00%     41.92% # Class of committed instruction (Count)
system.cpu.commit.committedInstType_0::MemRead        46720      0.32%     42.24% # Class of committed instruction (Count)
system.cpu.commit.committedInstType_0::MemWrite       380799      2.62%     44.86% # Class of committed instruction (Count)
system.cpu.commit.committedInstType_0::FloatMemRead      1091571      7.52%     52.38% # Class of committed instruction (Count)
system.cpu.commit.committedInstType_0::FloatMemWrite      6912075     47.62%    100.00% # Class of committed instruction (Count)
system.cpu.commit.committedInstType_0::IprAccess            0      0.00%    100.00% # Class of committed instruction (Count)
system.cpu.commit.committedInstType_0::InstPrefetch            0      0.00%    100.00% # Class of committed instruction (Count)
system.cpu.commit.committedInstType_0::total     14515873                       # Class of committed instruction (Count)
system.cpu.commit.commitEligibleSamples         57578                       # number cycles where commit BW limit reached (Cycle)
system.cpu.dcache.demandHits::cpu.data        7600122                       # number of demand (read+write) hits (Count)
system.cpu.dcache.demandHits::total           7600122                       # number of demand (read+write) hits (Count)
system.cpu.dcache.overallHits::cpu.data       7600122                       # number of overall hits (Count)
system.cpu.dcache.overallHits::total          7600122                       # number of overall hits (Count)
system.cpu.dcache.demandMisses::cpu.data       921675                       # number of demand (read+write) misses (Count)
system.cpu.dcache.demandMisses::total          921675                       # number of demand (read+write) misses (Count)
system.cpu.dcache.overallMisses::cpu.data       921675                       # number of overall misses (Count)
system.cpu.dcache.overallMisses::total         921675                       # number of overall misses (Count)
system.cpu.dcache.demandMissLatency::cpu.data  56234273988                       # number of demand (read+write) miss ticks (Tick)
system.cpu.dcache.demandMissLatency::total  56234273988                       # number of demand (read+write) miss ticks (Tick)
system.cpu.dcache.overallMissLatency::cpu.data  56234273988                       # number of overall miss ticks (Tick)
system.cpu.dcache.overallMissLatency::total  56234273988                       # number of overall miss ticks (Tick)
system.cpu.dcache.demandAccesses::cpu.data      8521797                       # number of demand (read+write) accesses (Count)
system.cpu.dcache.demandAccesses::total       8521797                       # number of demand (read+write) accesses (Count)
system.cpu.dcache.overallAccesses::cpu.data      8521797                       # number of overall (read+write) accesses (Count)
system.cpu.dcache.overallAccesses::total      8521797                       # number of overall (read+write) accesses (Count)
system.cpu.dcache.demandMissRate::cpu.data     0.108155                       # miss rate for demand accesses (Ratio)
system.cpu.dcache.demandMissRate::total      0.108155                       # miss rate for demand accesses (Ratio)
system.cpu.dcache.overallMissRate::cpu.data     0.108155                       # miss rate for overall accesses (Ratio)
system.cpu.dcache.overallMissRate::total     0.108155                       # miss rate for overall accesses (Ratio)
system.cpu.dcache.demandAvgMissLatency::cpu.data 61013.127174                       # average overall miss latency in ticks ((Tick/Count))
system.cpu.dcache.demandAvgMissLatency::total 61013.127174                       # average overall miss latency in ticks ((Tick/Count))
system.cpu.dcache.overallAvgMissLatency::cpu.data 61013.127174                       # average overall miss latency ((Tick/Count))
system.cpu.dcache.overallAvgMissLatency::total 61013.127174                       # average overall miss latency ((Tick/Count))
system.cpu.dcache.blockedCycles::no_mshrs        13430                       # number of cycles access was blocked (Cycle)
system.cpu.dcache.blockedCycles::no_targets            0                       # number of cycles access was blocked (Cycle)
system.cpu.dcache.blockedCauses::no_mshrs          278                       # number of times access was blocked (Count)
system.cpu.dcache.blockedCauses::no_targets            0                       # number of times access was blocked (Count)
system.cpu.dcache.avgBlocked::no_mshrs      48.309353                       # average number of cycles each access was blocked ((Cycle/Count))
system.cpu.dcache.avgBlocked::no_targets          nan                       # average number of cycles each access was blocked ((Cycle/Count))
system.cpu.dcache.writebacks::writebacks       909071                       # number of writebacks (Count)
system.cpu.dcache.writebacks::total            909071                       # number of writebacks (Count)
system.cpu.dcache.demandMshrHits::cpu.data         9306                       # number of demand (read+write) MSHR hits (Count)
system.cpu.dcache.demandMshrHits::total          9306                       # number of demand (read+write) MSHR hits (Count)
system.cpu.dcache.overallMshrHits::cpu.data         9306                       # number of overall MSHR hits (Count)
system.cpu.dcache.overallMshrHits::total         9306                       # number of overall MSHR hits (Count)
system.cpu.dcache.demandMshrMisses::cpu.data       912369                       # number of demand (read+write) MSHR misses (Count)
system.cpu.dcache.demandMshrMisses::total       912369                       # number of demand (read+write) MSHR misses (Count)
system.cpu.dcache.overallMshrMisses::cpu.data       912369                       # number of overall MSHR misses (Count)
system.cpu.dcache.overallMshrMisses::total       912369                       # number of overall MSHR misses (Count)
system.cpu.dcache.demandMshrMissLatency::cpu.data  54879441988                       # number of demand (read+write) MSHR miss ticks (Tick)
system.cpu.dcache.demandMshrMissLatency::total  54879441988                       # number of demand (read+write) MSHR miss ticks (Tick)
system.cpu.dcache.overallMshrMissLatency::cpu.data  54879441988                       # number of overall MSHR miss ticks (Tick)
system.cpu.dcache.overallMshrMissLatency::total  54879441988                       # number of overall MSHR miss ticks (Tick)
system.cpu.dcache.demandMshrMissRate::cpu.data     0.107063                       # mshr miss ratio for demand accesses (Ratio)
system.cpu.dcache.demandMshrMissRate::total     0.107063                       # mshr miss ratio for demand accesses (Ratio)
system.cpu.dcache.overallMshrMissRate::cpu.data     0.107063                       # mshr miss ratio for overall accesses (Ratio)
system.cpu.dcache.overallMshrMissRate::total     0.107063                       # mshr miss ratio for overall accesses (Ratio)
system.cpu.dcache.demandAvgMshrMissLatency::cpu.data 60150.489537                       # average overall mshr miss latency ((Tick/Count))
system.cpu.dcache.demandAvgMshrMissLatency::total 60150.489537                       # average overall mshr miss latency ((Tick/Count))
system.cpu.dcache.overallAvgMshrMissLatency::cpu.data 60150.489537                       # average overall mshr miss latency ((Tick/Count))
system.cpu.dcache.overallAvgMshrMissLatency::total 60150.489537                       # average overall mshr miss latency ((Tick/Count))
system.cpu.dcache.replacements                 911345                       # number of replacements (Count)
system.cpu.dcache.ReadReq.hits::cpu.data      1217264                       # number of ReadReq hits (Count)
system.cpu.dcache.ReadReq.hits::total         1217264                       # number of ReadReq hits (Count)
system.cpu.dcache.ReadReq.misses::cpu.data        11681                       # number of ReadReq misses (Count)
system.cpu.dcache.ReadReq.misses::total         11681                       # number of ReadReq misses (Count)
system.cpu.dcache.ReadReq.missLatency::cpu.data    590784500                       # number of ReadReq miss ticks (Tick)
system.cpu.dcache.ReadReq.missLatency::total    590784500                       # number of ReadReq miss ticks (Tick)
system.cpu.dcache.ReadReq.accesses::cpu.data      1228945                       # number of ReadReq accesses(hits+misses) (Count)
system.cpu.dcache.ReadReq.accesses::total      1228945                       # number of ReadReq accesses(hits+misses) (Count)
system.cpu.dcache.ReadReq.missRate::cpu.data     0.009505                       # miss rate for ReadReq accesses (Ratio)
system.cpu.dcache.ReadReq.missRate::total     0.009505                       # miss rate for ReadReq accesses (Ratio)
system.cpu.dcache.ReadReq.avgMissLatency::cpu.data 50576.534543                       # average ReadReq miss latency ((Tick/Count))
system.cpu.dcache.ReadReq.avgMissLatency::total 50576.534543                       # average ReadReq miss latency ((Tick/Count))
system.cpu.dcache.ReadReq.mshrHits::cpu.data         9297                       # number of ReadReq MSHR hits (Count)
system.cpu.dcache.ReadReq.mshrHits::total         9297                       # number of ReadReq MSHR hits (Count)
system.cpu.dcache.ReadReq.mshrMisses::cpu.data         2384                       # number of ReadReq MSHR misses (Count)
system.cpu.dcache.ReadReq.mshrMisses::total         2384                       # number of ReadReq MSHR misses (Count)
system.cpu.dcache.ReadReq.mshrMissLatency::cpu.data    146233500                       # number of ReadReq MSHR miss ticks (Tick)
system.cpu.dcache.ReadReq.mshrMissLatency::total    146233500                       # number of ReadReq MSHR miss ticks (Tick)
system.cpu.dcache.ReadReq.mshrMissRate::cpu.data     0.001940                       # mshr miss rate for ReadReq accesses (Ratio)
system.cpu.dcache.ReadReq.mshrMissRate::total     0.001940                       # mshr miss rate for ReadReq accesses (Ratio)
system.cpu.dcache.ReadReq.avgMshrMissLatency::cpu.data 61339.555369                       # average ReadReq mshr miss latency ((Tick/Count))
system.cpu.dcache.ReadReq.avgMshrMissLatency::total 61339.555369                       # average ReadReq mshr miss latency ((Tick/Count))
system.cpu.dcache.WriteReq.hits::cpu.data      6382858                       # number of WriteReq hits (Count)
system.cpu.dcache.WriteReq.hits::total        6382858                       # number of WriteReq hits (Count)
system.cpu.dcache.WriteReq.misses::cpu.data       909994                       # number of WriteReq misses (Count)
system.cpu.dcache.WriteReq.misses::total       909994                       # number of WriteReq misses (Count)
system.cpu.dcache.WriteReq.missLatency::cpu.data  55643489488                       # number of WriteReq miss ticks (Tick)
system.cpu.dcache.WriteReq.missLatency::total  55643489488                       # number of WriteReq miss ticks (Tick)
system.cpu.dcache.WriteReq.accesses::cpu.data      7292852                       # number of WriteReq accesses(hits+misses) (Count)
system.cpu.dcache.WriteReq.accesses::total      7292852                       # number of WriteReq accesses(hits+misses) (Count)
system.cpu.dcache.WriteReq.missRate::cpu.data     0.124779                       # miss rate for WriteReq accesses (Ratio)
system.cpu.dcache.WriteReq.missRate::total     0.124779                       # miss rate for WriteReq accesses (Ratio)
system.cpu.dcache.WriteReq.avgMissLatency::cpu.data 61147.094913                       # average WriteReq miss latency ((Tick/Count))
system.cpu.dcache.WriteReq.avgMissLatency::total 61147.094913                       # average WriteReq miss latency ((Tick/Count))
system.cpu.dcache.WriteReq.mshrHits::cpu.data            9                       # number of WriteReq MSHR hits (Count)
system.cpu.dcache.WriteReq.mshrHits::total            9                       # number of WriteReq MSHR hits (Count)
system.cpu.dcache.WriteReq.mshrMisses::cpu.data       909985                       # number of WriteReq MSHR misses (Count)
system.cpu.dcache.WriteReq.mshrMisses::total       909985                       # number of WriteReq MSHR misses (Count)
system.cpu.dcache.WriteReq.mshrMissLatency::cpu.data  54733208488                       # number of WriteReq MSHR miss ticks (Tick)
system.cpu.dcache.WriteReq.mshrMissLatency::total  54733208488                       # number of WriteReq MSHR miss ticks (Tick)
system.cpu.dcache.WriteReq.mshrMissRate::cpu.data     0.124778                       # mshr miss rate for WriteReq accesses (Ratio)
system.cpu.dcache.WriteReq.mshrMissRate::total     0.124778                       # mshr miss rate for WriteReq accesses (Ratio)
system.cpu.dcache.WriteReq.avgMshrMissLatency::cpu.data 60147.374394                       # average WriteReq mshr miss latency ((Tick/Count))
system.cpu.dcache.WriteReq.avgMshrMissLatency::total 60147.374394                       # average WriteReq mshr miss latency ((Tick/Count))
system.cpu.dcache.power_state.pwrStateResidencyTicks::UNDEFINED  62570089000                       # Cumulative time (in ticks) in various power states (Tick)
system.cpu.dcache.tags.tagsInUse          1023.181557                       # Average ticks per tags in use ((Tick/Count))
system.cpu.dcache.tags.totalRefs              8512491                       # Total number of references to valid blocks. (Count)
system.cpu.dcache.tags.sampledRefs             912369                       # Sample count of references to valid blocks. (Count)
system.cpu.dcache.tags.avgRefs               9.330097                       # Average number of references to valid blocks. ((Count/Count))
system.cpu.dcache.tags.warmupTick              148000                       # The tick when the warmup percentage was hit. (Tick)
system.cpu.dcache.tags.occupancies::cpu.data  1023.181557                       # Average occupied blocks per tick, per requestor ((Count/Tick))
system.cpu.dcache.tags.avgOccs::cpu.data     0.999201                       # Average percentage of cache occupancy ((Ratio/Tick))
system.cpu.dcache.tags.avgOccs::total        0.999201                       # Average percentage of cache occupancy ((Ratio/Tick))
system.cpu.dcache.tags.occupanciesTaskId::1024         1024                       # Occupied blocks per task id (Count)
system.cpu.dcache.tags.ageTaskId_1024::0          146                       # Occupied blocks per task id, per block age (Count)
system.cpu.dcache.tags.ageTaskId_1024::1          877                       # Occupied blocks per task id, per block age (Count)
system.cpu.dcache.tags.ageTaskId_1024::4            1                       # Occupied blocks per task id, per block age (Count)
system.cpu.dcache.tags.ratioOccsTaskId::1024            1                       # Ratio of occupied blocks and all blocks, per task id (Ratio)
system.cpu.dcache.tags.tagAccesses           17955963                       # Number of tag accesses (Count)
system.cpu.dcache.tags.dataAccesses          17955963                       # Number of data accesses (Count)
system.cpu.dcache.tags.power_state.pwrStateResidencyTicks::UNDEFINED  62570089000                       # Cumulative time (in ticks) in various power states (Tick)
system.cpu.decode.idleCycles                   552353                       # Number of cycles decode is idle (Cycle)
system.cpu.decode.blockedCycles             122503685                       # Number of cycles decode is blocked (Cycle)
system.cpu.decode.runCycles                    790812                       # Number of cycles decode is running (Cycle)
system.cpu.decode.unblockCycles               1210860                       # Number of cycles decode is unblocking (Cycle)
system.cpu.decode.squashCycles                  20099                       # Number of cycles decode is squashing (Cycle)
system.cpu.decode.branchResolved               418918                       # Number of times decode resolved a branch (Count)
system.cpu.decode.branchMispred                   563                       # Number of times decode detected a branch misprediction (Count)
system.cpu.decode.decodedInsts               15752884                       # Number of instructions handled by decode (Count)
system.cpu.decode.squashedInsts                  2710                       # Number of squashed instructions handled by decode (Count)
system.cpu.dtb_walker_cache.blockedCycles::no_mshrs            0                       # number of cycles access was blocked (Cycle)
system.cpu.dtb_walker_cache.blockedCycles::no_targets            0                       # number of cycles access was blocked (Cycle)
system.cpu.dtb_walker_cache.blockedCauses::no_mshrs            0                       # number of times access was blocked (Count)
system.cpu.dtb_walker_cache.blockedCauses::no_targets            0                       # number of times access was blocked (Count)
system.cpu.dtb_walker_cache.avgBlocked::no_mshrs          nan                       # average number of cycles each access was blocked ((Cycle/Count))
system.cpu.dtb_walker_cache.avgBlocked::no_targets          nan                       # average number of cycles each access was blocked ((Cycle/Count))
system.cpu.dtb_walker_cache.replacements            0                       # number of replacements (Count)
system.cpu.dtb_walker_cache.power_state.pwrStateResidencyTicks::UNDEFINED  62570089000                       # Cumulative time (in ticks) in various power states (Tick)
system.cpu.dtb_walker_cache.tags.tagsInUse            0                       # Average ticks per tags in use ((Tick/Count))
system.cpu.dtb_walker_cache.tags.totalRefs            0                       # Total number of references to valid blocks. (Count)
system.cpu.dtb_walker_cache.tags.sampledRefs            0                       # Sample count of references to valid blocks. (Count)
system.cpu.dtb_walker_cache.tags.avgRefs          nan                       # Average number of references to valid blocks. ((Count/Count))
system.cpu.dtb_walker_cache.tags.warmupTick            0                       # The tick when the warmup percentage was hit. (Tick)
system.cpu.dtb_walker_cache.tags.tagAccesses            0                       # Number of tag accesses (Count)
system.cpu.dtb_walker_cache.tags.dataAccesses            0                       # Number of data accesses (Count)
system.cpu.dtb_walker_cache.tags.power_state.pwrStateResidencyTicks::UNDEFINED  62570089000                       # Cumulative time (in ticks) in various power states (Tick)
system.cpu.fetch.icacheStallCycles            1709525                       # Number of cycles fetch is stalled on an Icache miss (Cycle)
system.cpu.fetch.insts                       11323608                       # Number of instructions fetch has processed (Count)
system.cpu.fetch.branches                      487489                       # Number of branches that fetch encountered (Count)
system.cpu.fetch.predictedBranches             447763                       # Number of branches that fetch has predicted taken (Count)
system.cpu.fetch.cycles                     123344069                       # Number of cycles fetch has run and was not squashing or blocked (Cycle)
system.cpu.fetch.squashCycles                   41296                       # Number of cycles fetch has spent squashing (Cycle)
system.cpu.fetch.miscStallCycles                  452                       # Number of cycles fetch has spent waiting on interrupts, or bad addresses, or out of MSHRs (Cycle)
system.cpu.fetch.pendingTrapStallCycles          3100                       # Number of stall cycles due to pending traps (Cycle)
system.cpu.fetch.icacheWaitRetryStallCycles           15                       # Number of stall cycles due to full MSHR (Cycle)
system.cpu.fetch.cacheLines                   1669641                       # Number of cache lines fetched (Count)
system.cpu.fetch.icacheSquashes                  1826                       # Number of outstanding Icache misses that were squashed (Count)
system.cpu.fetch.nisnDist::samples          125077809                       # Number of instructions fetched each cycle (Total) (Count)
system.cpu.fetch.nisnDist::mean              0.131508                       # Number of instructions fetched each cycle (Total) (Count)
system.cpu.fetch.nisnDist::stdev             0.924409                       # Number of instructions fetched each cycle (Total) (Count)
system.cpu.fetch.nisnDist::underflows               0      0.00%      0.00% # Number of instructions fetched each cycle (Total) (Count)
system.cpu.fetch.nisnDist::0                121936591     97.49%     97.49% # Number of instructions fetched each cycle (Total) (Count)
system.cpu.fetch.nisnDist::1                   305953      0.24%     97.73% # Number of instructions fetched each cycle (Total) (Count)
system.cpu.fetch.nisnDist::2                   546723      0.44%     98.17% # Number of instructions fetched each cycle (Total) (Count)
system.cpu.fetch.nisnDist::3                   181326      0.14%     98.32% # Number of instructions fetched each cycle (Total) (Count)
system.cpu.fetch.nisnDist::4                   314657      0.25%     98.57% # Number of instructions fetched each cycle (Total) (Count)
system.cpu.fetch.nisnDist::5                   203986      0.16%     98.73% # Number of instructions fetched each cycle (Total) (Count)
system.cpu.fetch.nisnDist::6                   172501      0.14%     98.87% # Number of instructions fetched each cycle (Total) (Count)
system.cpu.fetch.nisnDist::7                   136771      0.11%     98.98% # Number of instructions fetched each cycle (Total) (Count)
system.cpu.fetch.nisnDist::8                  1279301      1.02%    100.00% # Number of instructions fetched each cycle (Total) (Count)
system.cpu.fetch.nisnDist::overflows                0      0.00%    100.00% # Number of instructions fetched each cycle (Total) (Count)
system.cpu.fetch.nisnDist::min_value                0                       # Number of instructions fetched each cycle (Total) (Count)
system.cpu.fetch.nisnDist::max_value                8                       # Number of instructions fetched each cycle (Total) (Count)
system.cpu.fetch.nisnDist::total            125077809                       # Number of instructions fetched each cycle (Total) (Count)
system.cpu.fetch.branchRate                  0.003896                       # Number of branch fetches per cycle (Ratio)
system.cpu.fetch.rate                        0.090487                       # Number of inst fetches per cycle ((Count/Cycle))
system.cpu.icache.demandHits::cpu.inst        1668148                       # number of demand (read+write) hits (Count)
system.cpu.icache.demandHits::total           1668148                       # number of demand (read+write) hits (Count)
system.cpu.icache.overallHits::cpu.inst       1668148                       # number of overall hits (Count)
system.cpu.icache.overallHits::total          1668148                       # number of overall hits (Count)
system.cpu.icache.demandMisses::cpu.inst         1493                       # number of demand (read+write) misses (Count)
system.cpu.icache.demandMisses::total            1493                       # number of demand (read+write) misses (Count)
system.cpu.icache.overallMisses::cpu.inst         1493                       # number of overall misses (Count)
system.cpu.icache.overallMisses::total           1493                       # number of overall misses (Count)
system.cpu.icache.demandMissLatency::cpu.inst     84863500                       # number of demand (read+write) miss ticks (Tick)
system.cpu.icache.demandMissLatency::total     84863500                       # number of demand (read+write) miss ticks (Tick)
system.cpu.icache.overallMissLatency::cpu.inst     84863500                       # number of overall miss ticks (Tick)
system.cpu.icache.overallMissLatency::total     84863500                       # number of overall miss ticks (Tick)
system.cpu.icache.demandAccesses::cpu.inst      1669641                       # number of demand (read+write) accesses (Count)
system.cpu.icache.demandAccesses::total       1669641                       # number of demand (read+write) accesses (Count)
system.cpu.icache.overallAccesses::cpu.inst      1669641                       # number of overall (read+write) accesses (Count)
system.cpu.icache.overallAccesses::total      1669641                       # number of overall (read+write) accesses (Count)
system.cpu.icache.demandMissRate::cpu.inst     0.000894                       # miss rate for demand accesses (Ratio)
system.cpu.icache.demandMissRate::total      0.000894                       # miss rate for demand accesses (Ratio)
system.cpu.icache.overallMissRate::cpu.inst     0.000894                       # miss rate for overall accesses (Ratio)
system.cpu.icache.overallMissRate::total     0.000894                       # miss rate for overall accesses (Ratio)
system.cpu.icache.demandAvgMissLatency::cpu.inst 56840.924313                       # average overall miss latency in ticks ((Tick/Count))
system.cpu.icache.demandAvgMissLatency::total 56840.924313                       # average overall miss latency in ticks ((Tick/Count))
system.cpu.icache.overallAvgMissLatency::cpu.inst 56840.924313                       # average overall miss latency ((Tick/Count))
system.cpu.icache.overallAvgMissLatency::total 56840.924313                       # average overall miss latency ((Tick/Count))
system.cpu.icache.blockedCycles::no_mshrs          516                       # number of cycles access was blocked (Cycle)
system.cpu.icache.blockedCycles::no_targets            0                       # number of cycles access was blocked (Cycle)
system.cpu.icache.blockedCauses::no_mshrs            1                       # number of times access was blocked (Count)
system.cpu.icache.blockedCauses::no_targets            0                       # number of times access was blocked (Count)
system.cpu.icache.avgBlocked::no_mshrs            516                       # average number of cycles each access was blocked ((Cycle/Count))
system.cpu.icache.avgBlocked::no_targets          nan                       # average number of cycles each access was blocked ((Cycle/Count))
system.cpu.icache.writebacks::writebacks          585                       # number of writebacks (Count)
system.cpu.icache.writebacks::total               585                       # number of writebacks (Count)
system.cpu.icache.demandMshrHits::cpu.inst          399                       # number of demand (read+write) MSHR hits (Count)
system.cpu.icache.demandMshrHits::total           399                       # number of demand (read+write) MSHR hits (Count)
system.cpu.icache.overallMshrHits::cpu.inst          399                       # number of overall MSHR hits (Count)
system.cpu.icache.overallMshrHits::total          399                       # number of overall MSHR hits (Count)
system.cpu.icache.demandMshrMisses::cpu.inst         1094                       # number of demand (read+write) MSHR misses (Count)
system.cpu.icache.demandMshrMisses::total         1094                       # number of demand (read+write) MSHR misses (Count)
system.cpu.icache.overallMshrMisses::cpu.inst         1094                       # number of overall MSHR misses (Count)
system.cpu.icache.overallMshrMisses::total         1094                       # number of overall MSHR misses (Count)
system.cpu.icache.demandMshrMissLatency::cpu.inst     67148500                       # number of demand (read+write) MSHR miss ticks (Tick)
system.cpu.icache.demandMshrMissLatency::total     67148500                       # number of demand (read+write) MSHR miss ticks (Tick)
system.cpu.icache.overallMshrMissLatency::cpu.inst     67148500                       # number of overall MSHR miss ticks (Tick)
system.cpu.icache.overallMshrMissLatency::total     67148500                       # number of overall MSHR miss ticks (Tick)
system.cpu.icache.demandMshrMissRate::cpu.inst     0.000655                       # mshr miss ratio for demand accesses (Ratio)
system.cpu.icache.demandMshrMissRate::total     0.000655                       # mshr miss ratio for demand accesses (Ratio)
system.cpu.icache.overallMshrMissRate::cpu.inst     0.000655                       # mshr miss ratio for overall accesses (Ratio)
system.cpu.icache.overallMshrMissRate::total     0.000655                       # mshr miss ratio for overall accesses (Ratio)
system.cpu.icache.demandAvgMshrMissLatency::cpu.inst 61378.884826                       # average overall mshr miss latency ((Tick/Count))
system.cpu.icache.demandAvgMshrMissLatency::total 61378.884826                       # average overall mshr miss latency ((Tick/Count))
system.cpu.icache.overallAvgMshrMissLatency::cpu.inst 61378.884826                       # average overall mshr miss latency ((Tick/Count))
system.cpu.icache.overallAvgMshrMissLatency::total 61378.884826                       # average overall mshr miss latency ((Tick/Count))
system.cpu.icache.replacements                    585                       # number of replacements (Count)
system.cpu.icache.ReadReq.hits::cpu.inst      1668148                       # number of ReadReq hits (Count)
system.cpu.icache.ReadReq.hits::total         1668148                       # number of ReadReq hits (Count)
system.cpu.icache.ReadReq.misses::cpu.inst         1493                       # number of ReadReq misses (Count)
system.cpu.icache.ReadReq.misses::total          1493                       # number of ReadReq misses (Count)
system.cpu.icache.ReadReq.missLatency::cpu.inst     84863500                       # number of ReadReq miss ticks (Tick)
system.cpu.icache.ReadReq.missLatency::total     84863500                       # number of ReadReq miss ticks (Tick)
system.cpu.icache.ReadReq.accesses::cpu.inst      1669641                       # number of ReadReq accesses(hits+misses) (Count)
system.cpu.icache.ReadReq.accesses::total      1669641                       # number of ReadReq accesses(hits+misses) (Count)
system.cpu.icache.ReadReq.missRate::cpu.inst     0.000894                       # miss rate for ReadReq accesses (Ratio)
system.cpu.icache.ReadReq.missRate::total     0.000894                       # miss rate for ReadReq accesses (Ratio)
system.cpu.icache.ReadReq.avgMissLatency::cpu.inst 56840.924313                       # average ReadReq miss latency ((Tick/Count))
system.cpu.icache.ReadReq.avgMissLatency::total 56840.924313                       # average ReadReq miss latency ((Tick/Count))
system.cpu.icache.ReadReq.mshrHits::cpu.inst          399                       # number of ReadReq MSHR hits (Count)
system.cpu.icache.ReadReq.mshrHits::total          399                       # number of ReadReq MSHR hits (Count)
system.cpu.icache.ReadReq.mshrMisses::cpu.inst         1094                       # number of ReadReq MSHR misses (Count)
system.cpu.icache.ReadReq.mshrMisses::total         1094                       # number of ReadReq MSHR misses (Count)
system.cpu.icache.ReadReq.mshrMissLatency::cpu.inst     67148500                       # number of ReadReq MSHR miss ticks (Tick)
system.cpu.icache.ReadReq.mshrMissLatency::total     67148500                       # number of ReadReq MSHR miss ticks (Tick)
system.cpu.icache.ReadReq.mshrMissRate::cpu.inst     0.000655                       # mshr miss rate for ReadReq accesses (Ratio)
system.cpu.icache.ReadReq.mshrMissRate::total     0.000655                       # mshr miss rate for ReadReq accesses (Ratio)
system.cpu.icache.ReadReq.avgMshrMissLatency::cpu.inst 61378.884826                       # average ReadReq mshr miss latency ((Tick/Count))
system.cpu.icache.ReadReq.avgMshrMissLatency::total 61378.884826                       # average ReadReq mshr miss latency ((Tick/Count))
system.cpu.icache.power_state.pwrStateResidencyTicks::UNDEFINED  62570089000                       # Cumulative time (in ticks) in various power states (Tick)
system.cpu.icache.tags.tagsInUse           508.732881                       # Average ticks per tags in use ((Tick/Count))
system.cpu.icache.tags.totalRefs              1669242                       # Total number of references to valid blocks. (Count)
system.cpu.icache.tags.sampledRefs               1094                       # Sample count of references to valid blocks. (Count)
system.cpu.icache.tags.avgRefs            1525.815356                       # Average number of references to valid blocks. ((Count/Count))
system.cpu.icache.tags.warmupTick               77000                       # The tick when the warmup percentage was hit. (Tick)
system.cpu.icache.tags.occupancies::cpu.inst   508.732881                       # Average occupied blocks per tick, per requestor ((Count/Tick))
system.cpu.icache.tags.avgOccs::cpu.inst     0.993619                       # Average percentage of cache occupancy ((Ratio/Tick))
system.cpu.icache.tags.avgOccs::total        0.993619                       # Average percentage of cache occupancy ((Ratio/Tick))
system.cpu.icache.tags.occupanciesTaskId::1024          509                       # Occupied blocks per task id (Count)
system.cpu.icache.tags.ageTaskId_1024::4          509                       # Occupied blocks per task id, per block age (Count)
system.cpu.icache.tags.ratioOccsTaskId::1024     0.994141                       # Ratio of occupied blocks and all blocks, per task id (Ratio)
system.cpu.icache.tags.tagAccesses            3340376                       # Number of tag accesses (Count)
system.cpu.icache.tags.dataAccesses           3340376                       # Number of data accesses (Count)
system.cpu.icache.tags.power_state.pwrStateResidencyTicks::UNDEFINED  62570089000                       # Cumulative time (in ticks) in various power states (Tick)
system.cpu.iew.idleCycles                           0                       # Number of cycles IEW is idle (Cycle)
system.cpu.iew.squashCycles                     20099                       # Number of cycles IEW is squashing (Cycle)
system.cpu.iew.blockCycles                     189350                       # Number of cycles IEW is blocking (Cycle)
system.cpu.iew.unblockCycles                 50443729                       # Number of cycles IEW is unblocking (Cycle)
system.cpu.iew.dispatchedInsts               15612502                       # Number of instructions dispatched to IQ (Count)
system.cpu.iew.dispSquashedInsts                  373                       # Number of squashed instructions skipped by dispatch (Count)
system.cpu.iew.dispLoadInsts                  1245517                       # Number of dispatched load instructions (Count)
system.cpu.iew.dispStoreInsts                 7755649                       # Number of dispatched store instructions (Count)
system.cpu.iew.dispNonSpecInsts                    56                       # Number of dispatched non-speculative instructions (Count)
system.cpu.iew.iqFullEvents                       543                       # Number of times the IQ has become full, causing a stall (Count)
system.cpu.iew.lsqFullEvents                 50442739                       # Number of times the LSQ has become full, causing a stall (Count)
system.cpu.iew.memOrderViolationEvents            104                       # Number of memory order violations (Count)
system.cpu.iew.predictedTakenIncorrect           2372                       # Number of branches that were predicted taken incorrectly (Count)
system.cpu.iew.predictedNotTakenIncorrect         4092                       # Number of branches that were predicted not taken incorrectly (Count)
system.cpu.iew.branchMispredicts                 6464                       # Number of branch mispredicts detected at execute (Count)
system.cpu.iew.mispredictedLVP                     13                       # mispredictedLVP (Count)
system.cpu.iew.LvpCorrect                           1                       # LvpCorrect (Count)
system.cpu.iew.instsToCommit                 15512074                       # Cumulative count of insts sent to commit (Count)
system.cpu.iew.writebackCount                15224483                       # Cumulative count of insts written-back (Count)
system.cpu.iew.producerInst                   5016016                       # Number of instructions producing a value (Count)
system.cpu.iew.consumerInst                   6067444                       # Number of instructions consuming a value (Count)
system.cpu.iew.wbRate                        0.121659                       # Insts written-back per cycle ((Count/Cycle))
system.cpu.iew.wbFanout                      0.826710                       # Average fanout of values written-back ((Count/Count))
system.cpu.interrupts.clk_domain.clock           8000                       # Clock period in ticks (Tick)
system.cpu.itb_walker_cache.blockedCycles::no_mshrs            0                       # number of cycles access was blocked (Cycle)
system.cpu.itb_walker_cache.blockedCycles::no_targets            0                       # number of cycles access was blocked (Cycle)
system.cpu.itb_walker_cache.blockedCauses::no_mshrs            0                       # number of times access was blocked (Count)
system.cpu.itb_walker_cache.blockedCauses::no_targets            0                       # number of times access was blocked (Count)
system.cpu.itb_walker_cache.avgBlocked::no_mshrs          nan                       # average number of cycles each access was blocked ((Cycle/Count))
system.cpu.itb_walker_cache.avgBlocked::no_targets          nan                       # average number of cycles each access was blocked ((Cycle/Count))
system.cpu.itb_walker_cache.replacements            0                       # number of replacements (Count)
system.cpu.itb_walker_cache.power_state.pwrStateResidencyTicks::UNDEFINED  62570089000                       # Cumulative time (in ticks) in various power states (Tick)
system.cpu.itb_walker_cache.tags.tagsInUse            0                       # Average ticks per tags in use ((Tick/Count))
system.cpu.itb_walker_cache.tags.totalRefs            0                       # Total number of references to valid blocks. (Count)
system.cpu.itb_walker_cache.tags.sampledRefs            0                       # Sample count of references to valid blocks. (Count)
system.cpu.itb_walker_cache.tags.avgRefs          nan                       # Average number of references to valid blocks. ((Count/Count))
system.cpu.itb_walker_cache.tags.warmupTick            0                       # The tick when the warmup percentage was hit. (Tick)
system.cpu.itb_walker_cache.tags.tagAccesses            0                       # Number of tag accesses (Count)
system.cpu.itb_walker_cache.tags.dataAccesses            0                       # Number of data accesses (Count)
system.cpu.itb_walker_cache.tags.power_state.pwrStateResidencyTicks::UNDEFINED  62570089000                       # Cumulative time (in ticks) in various power states (Tick)
system.cpu.lsq0.forwLoads                        4354                       # Number of loads that had data forwarded from stores (Count)
system.cpu.lsq0.squashedLoads                  107225                       # Number of loads squashed (Count)
system.cpu.lsq0.ignoredResponses                   53                       # Number of memory responses ignored because the instruction is squashed (Count)
system.cpu.lsq0.memOrderViolation                 104                       # Number of memory ordering violations (Count)
system.cpu.lsq0.squashedStores                 462772                       # Number of stores squashed (Count)
system.cpu.lsq0.rescheduledLoads                    4                       # Number of loads that were rescheduled (Count)
system.cpu.lsq0.blockedByCache                    264                       # Number of times an access to memory failed due to the cache being blocked (Count)
system.cpu.lsq0.loadToUse::samples            1138290                       # Distribution of cycle latency between the first time a load is issued and its completion (Unspecified)
system.cpu.lsq0.loadToUse::mean              3.690165                       # Distribution of cycle latency between the first time a load is issued and its completion (Unspecified)
system.cpu.lsq0.loadToUse::stdev            10.277026                       # Distribution of cycle latency between the first time a load is issued and its completion (Unspecified)
system.cpu.lsq0.loadToUse::0-9                1131603     99.41%     99.41% # Distribution of cycle latency between the first time a load is issued and its completion (Unspecified)
system.cpu.lsq0.loadToUse::10-19                  334      0.03%     99.44% # Distribution of cycle latency between the first time a load is issued and its completion (Unspecified)
system.cpu.lsq0.loadToUse::20-29                  190      0.02%     99.46% # Distribution of cycle latency between the first time a load is issued and its completion (Unspecified)
system.cpu.lsq0.loadToUse::30-39                  139      0.01%     99.47% # Distribution of cycle latency between the first time a load is issued and its completion (Unspecified)
system.cpu.lsq0.loadToUse::40-49                  109      0.01%     99.48% # Distribution of cycle latency between the first time a load is issued and its completion (Unspecified)
system.cpu.lsq0.loadToUse::50-59                  159      0.01%     99.49% # Distribution of cycle latency between the first time a load is issued and its completion (Unspecified)
system.cpu.lsq0.loadToUse::60-69                  228      0.02%     99.51% # Distribution of cycle latency between the first time a load is issued and its completion (Unspecified)
system.cpu.lsq0.loadToUse::70-79                  171      0.02%     99.53% # Distribution of cycle latency between the first time a load is issued and its completion (Unspecified)
[...]
system.mem_ctrls.dram.perBankRdBursts::14        57080                       # Per bank write bursts (Count)
system.mem_ctrls.dram.perBankRdBursts::15        57066                       # Per bank write bursts (Count)
system.mem_ctrls.dram.perBankWrBursts::0        56795                       # Per bank write bursts (Count)
system.mem_ctrls.dram.perBankWrBursts::1        56785                       # Per bank write bursts (Count)
system.mem_ctrls.dram.perBankWrBursts::2        56775                       # Per bank write bursts (Count)
system.mem_ctrls.dram.perBankWrBursts::3        56754                       # Per bank write bursts (Count)
system.mem_ctrls.dram.perBankWrBursts::4        56864                       # Per bank write bursts (Count)
system.mem_ctrls.dram.perBankWrBursts::5        56881                       # Per bank write bursts (Count)
system.mem_ctrls.dram.perBankWrBursts::6        56802                       # Per bank write bursts (Count)
system.mem_ctrls.dram.perBankWrBursts::7        56916                       # Per bank write bursts (Count)
system.mem_ctrls.dram.perBankWrBursts::8        56930                       # Per bank write bursts (Count)
system.mem_ctrls.dram.perBankWrBursts::9        56880                       # Per bank write bursts (Count)
system.mem_ctrls.dram.perBankWrBursts::10        56920                       # Per bank write bursts (Count)
system.mem_ctrls.dram.perBankWrBursts::11        56868                       # Per bank write bursts (Count)
system.mem_ctrls.dram.perBankWrBursts::12        56849                       # Per bank write bursts (Count)
system.mem_ctrls.dram.perBankWrBursts::13        56855                       # Per bank write bursts (Count)
system.mem_ctrls.dram.perBankWrBursts::14        56864                       # Per bank write bursts (Count)
system.mem_ctrls.dram.perBankWrBursts::15        56882                       # Per bank write bursts (Count)
system.mem_ctrls.dram.totQLat              8750306000                       # Total ticks spent queuing (Tick)
system.mem_ctrls.dram.totBusLat            4567185000                       # Total ticks spent in databus transfers (Tick)
system.mem_ctrls.dram.totMemAccLat        25877249750                       # Total ticks spent from burst creation until serviced by the DRAM (Tick)
system.mem_ctrls.dram.avgQLat                 9579.54                       # Average queueing delay per DRAM burst ((Tick/Count))
system.mem_ctrls.dram.avgBusLat               5000.00                       # Average bus latency per DRAM burst ((Tick/Count))
system.mem_ctrls.dram.avgMemAccLat           28329.54                       # Average memory access latency per DRAM burst ((Tick/Count))
system.mem_ctrls.dram.readRowHits              848883                       # Number of row buffer hits during reads (Count)
system.mem_ctrls.dram.writeRowHits             843706                       # Number of row buffer hits during writes (Count)
system.mem_ctrls.dram.readRowHitRate            92.93                       # Row buffer hit rate for reads (Ratio)
system.mem_ctrls.dram.writeRowHitRate           92.75                       # Row buffer hit rate for writes (Ratio)
system.mem_ctrls.dram.bytesPerActivate::samples       130464                       # Bytes accessed per row activation (Byte)
system.mem_ctrls.dram.bytesPerActivate::mean   894.298749                       # Bytes accessed per row activation (Byte)
system.mem_ctrls.dram.bytesPerActivate::gmean   791.910290                       # Bytes accessed per row activation (Byte)
system.mem_ctrls.dram.bytesPerActivate::stdev   276.032178                       # Bytes accessed per row activation (Byte)
system.mem_ctrls.dram.bytesPerActivate::0-127         4755      3.64%      3.64% # Bytes accessed per row activation (Byte)
system.mem_ctrls.dram.bytesPerActivate::128-255         3977      3.05%      6.69% # Bytes accessed per row activation (Byte)
system.mem_ctrls.dram.bytesPerActivate::256-383         3808      2.92%      9.61% # Bytes accessed per row activation (Byte)
system.mem_ctrls.dram.bytesPerActivate::384-511         3452      2.65%     12.26% # Bytes accessed per row activation (Byte)
system.mem_ctrls.dram.bytesPerActivate::512-639         3433      2.63%     14.89% # Bytes accessed per row activation (Byte)
system.mem_ctrls.dram.bytesPerActivate::640-767         3364      2.58%     17.47% # Bytes accessed per row activation (Byte)
system.mem_ctrls.dram.bytesPerActivate::768-895         3570      2.74%     20.20% # Bytes accessed per row activation (Byte)
system.mem_ctrls.dram.bytesPerActivate::896-1023         4301      3.30%     23.50% # Bytes accessed per row activation (Byte)
system.mem_ctrls.dram.bytesPerActivate::1024-1151        99804     76.50%    100.00% # Bytes accessed per row activation (Byte)
system.mem_ctrls.dram.bytesPerActivate::total       130464                       # Bytes accessed per row activation (Byte)
system.mem_ctrls.dram.bytesRead              58459968                       # Total bytes read (Byte)
system.mem_ctrls.dram.bytesWritten           58215680                       # Total bytes written (Byte)
system.mem_ctrls.dram.avgRdBW              934.311728                       # Average DRAM read bandwidth in MiBytes/s ((Byte/Second))
system.mem_ctrls.dram.avgWrBW              930.407499                       # Average DRAM write bandwidth in MiBytes/s ((Byte/Second))
system.mem_ctrls.dram.peakBW                 12800.00                       # Theoretical peak bandwidth in MiByte/s ((Byte/Second))
system.mem_ctrls.dram.busUtil                   14.57                       # Data bus utilization in percentage (Ratio)
system.mem_ctrls.dram.busUtilRead                7.30                       # Data bus utilization in percentage for reads (Ratio)
system.mem_ctrls.dram.busUtilWrite               7.27                       # Data bus utilization in percentage for writes (Ratio)
system.mem_ctrls.dram.pageHitRate               92.84                       # Row buffer hit rate, read and write combined (Ratio)
system.mem_ctrls.dram.power_state.pwrStateResidencyTicks::UNDEFINED  62570089000                       # Cumulative time (in ticks) in various power states (Tick)
system.mem_ctrls.dram.rank0.actEnergy       466584720                       # Energy for activate commands per rank (pJ) (Joule)
system.mem_ctrls.dram.rank0.preEnergy       247988070                       # Energy for precharge commands per rank (pJ) (Joule)
system.mem_ctrls.dram.rank0.readEnergy     3263451240                       # Energy for read commands per rank (pJ) (Joule)
system.mem_ctrls.dram.rank0.writeEnergy    2372865840                       # Energy for write commands per rank (pJ) (Joule)
system.mem_ctrls.dram.rank0.refreshEnergy 4938632400.000001                       # Energy for refresh commands per rank (pJ) (Joule)
system.mem_ctrls.dram.rank0.actBackEnergy  22788095550                       # Energy for active background per rank (pJ) (Joule)
system.mem_ctrls.dram.rank0.preBackEnergy   4836939360                       # Energy for precharge background per rank (pJ) (Joule)
system.mem_ctrls.dram.rank0.actPowerDownEnergy            0                       # Energy for active power-down per rank (pJ) (Joule)
system.mem_ctrls.dram.rank0.prePowerDownEnergy            0                       # Energy for precharge power-down per rank (pJ) (Joule)
system.mem_ctrls.dram.rank0.selfRefreshEnergy            0                       # Energy for self refresh per rank (pJ) (Joule)
system.mem_ctrls.dram.rank0.totalEnergy   38914557180                       # Total energy per rank (pJ) (Joule)
system.mem_ctrls.dram.rank0.averagePower   621.935462                       # Core power per rank (mW) (Watt)
system.mem_ctrls.dram.rank0.totalIdleTime            0                       # Total Idle time Per DRAM Rank (Tick)
system.mem_ctrls.dram.rank0.pwrStateTime::IDLE  12017039250                       # Time in different power states (Tick)
system.mem_ctrls.dram.rank0.pwrStateTime::REF   2089100000                       # Time in different power states (Tick)
system.mem_ctrls.dram.rank0.pwrStateTime::SREF            0                       # Time in different power states (Tick)
system.mem_ctrls.dram.rank0.pwrStateTime::PRE_PDN            0                       # Time in different power states (Tick)
system.mem_ctrls.dram.rank0.pwrStateTime::ACT  48463949750                       # Time in different power states (Tick)
system.mem_ctrls.dram.rank0.pwrStateTime::ACT_PDN            0                       # Time in different power states (Tick)
system.mem_ctrls.dram.rank1.actEnergy       464956800                       # Energy for activate commands per rank (pJ) (Joule)
system.mem_ctrls.dram.rank1.preEnergy       247122810                       # Energy for precharge commands per rank (pJ) (Joule)
system.mem_ctrls.dram.rank1.readEnergy     3258488940                       # Energy for read commands per rank (pJ) (Joule)
system.mem_ctrls.dram.rank1.writeEnergy    2375350560                       # Energy for write commands per rank (pJ) (Joule)
system.mem_ctrls.dram.rank1.refreshEnergy 4938632400.000001                       # Energy for refresh commands per rank (pJ) (Joule)
system.mem_ctrls.dram.rank1.actBackEnergy  22808986620                       # Energy for active background per rank (pJ) (Joule)
system.mem_ctrls.dram.rank1.preBackEnergy   4819346880                       # Energy for precharge background per rank (pJ) (Joule)
system.mem_ctrls.dram.rank1.actPowerDownEnergy            0                       # Energy for active power-down per rank (pJ) (Joule)
system.mem_ctrls.dram.rank1.prePowerDownEnergy            0                       # Energy for precharge power-down per rank (pJ) (Joule)
system.mem_ctrls.dram.rank1.selfRefreshEnergy            0                       # Energy for self refresh per rank (pJ) (Joule)
system.mem_ctrls.dram.rank1.totalEnergy   38912885010                       # Total energy per rank (pJ) (Joule)
system.mem_ctrls.dram.rank1.averagePower   621.908737                       # Core power per rank (mW) (Watt)
system.mem_ctrls.dram.rank1.totalIdleTime            0                       # Total Idle time Per DRAM Rank (Tick)
system.mem_ctrls.dram.rank1.pwrStateTime::IDLE  11967410500                       # Time in different power states (Tick)
system.mem_ctrls.dram.rank1.pwrStateTime::REF   2089100000                       # Time in different power states (Tick)
system.mem_ctrls.dram.rank1.pwrStateTime::SREF            0                       # Time in different power states (Tick)
system.mem_ctrls.dram.rank1.pwrStateTime::PRE_PDN            0                       # Time in different power states (Tick)
system.mem_ctrls.dram.rank1.pwrStateTime::ACT  48513578500                       # Time in different power states (Tick)
system.mem_ctrls.dram.rank1.pwrStateTime::ACT_PDN            0                       # Time in different power states (Tick)
system.mem_ctrls.power_state.pwrStateResidencyTicks::UNDEFINED  62570089000                       # Cumulative time (in ticks) in various power states (Tick)
system.membus.transDist::ReadResp                3478                       # Transaction distribution (Count)
system.membus.transDist::WritebackDirty        909071                       # Transaction distribution (Count)
system.membus.transDist::WritebackClean           585                       # Transaction distribution (Count)
system.membus.transDist::CleanEvict              2274                       # Transaction distribution (Count)
system.membus.transDist::ReadExReq             909985                       # Transaction distribution (Count)
system.membus.transDist::ReadExResp            909985                       # Transaction distribution (Count)
system.membus.transDist::ReadCleanReq            1094                       # Transaction distribution (Count)
system.membus.transDist::ReadSharedReq           2384                       # Transaction distribution (Count)
system.membus.pktCount_system.cpu.icache.mem_side_port::system.mem_ctrls.port         2773                       # Packet count per connected requestor and responder (Count)
system.membus.pktCount_system.cpu.icache.mem_side_port::total         2773                       # Packet count per connected requestor and responder (Count)
system.membus.pktCount_system.cpu.dcache.mem_side_port::system.mem_ctrls.port      2736083                       # Packet count per connected requestor and responder (Count)
system.membus.pktCount_system.cpu.dcache.mem_side_port::total      2736083                       # Packet count per connected requestor and responder (Count)
system.membus.pktCount::total                 2738856                       # Packet count per connected requestor and responder (Count)
system.membus.pktSize_system.cpu.icache.mem_side_port::system.mem_ctrls.port       107456                       # Cumulative packet size per connected requestor and responder (Byte)
system.membus.pktSize_system.cpu.icache.mem_side_port::total       107456                       # Cumulative packet size per connected requestor and responder (Byte)
system.membus.pktSize_system.cpu.dcache.mem_side_port::system.mem_ctrls.port    116572160                       # Cumulative packet size per connected requestor and responder (Byte)
system.membus.pktSize_system.cpu.dcache.mem_side_port::total    116572160                       # Cumulative packet size per connected requestor and responder (Byte)
system.membus.pktSize::total                116679616                       # Cumulative packet size per connected requestor and responder (Byte)
system.membus.snoops                                0                       # Total snoops (Count)
system.membus.snoopTraffic                          0                       # Total snoop traffic (Byte)
system.membus.snoopFanout::samples             913463                       # Request fanout histogram (Count)
system.membus.snoopFanout::mean              0.000009                       # Request fanout histogram (Count)
system.membus.snoopFanout::stdev             0.002959                       # Request fanout histogram (Count)
system.membus.snoopFanout::underflows               0      0.00%      0.00% # Request fanout histogram (Count)
system.membus.snoopFanout::0                   913455    100.00%    100.00% # Request fanout histogram (Count)
system.membus.snoopFanout::1                        8      0.00%    100.00% # Request fanout histogram (Count)
system.membus.snoopFanout::2                        0      0.00%    100.00% # Request fanout histogram (Count)
system.membus.snoopFanout::3                        0      0.00%    100.00% # Request fanout histogram (Count)
system.membus.snoopFanout::4                        0      0.00%    100.00% # Request fanout histogram (Count)
system.membus.snoopFanout::overflows                0      0.00%    100.00% # Request fanout histogram (Count)
system.membus.snoopFanout::min_value                0                       # Request fanout histogram (Count)
system.membus.snoopFanout::max_value                1                       # Request fanout histogram (Count)
system.membus.snoopFanout::total               913463                       # Request fanout histogram (Count)
system.membus.power_state.pwrStateResidencyTicks::UNDEFINED  62570089000                       # Cumulative time (in ticks) in various power states (Tick)
system.membus.reqLayer2.occupancy          5608253500                       # Layer occupancy (ticks) (Tick)
system.membus.reqLayer2.utilization               0.1                       # Layer utilization (Ratio)
system.membus.respLayer1.occupancy            5791000                       # Layer occupancy (ticks) (Tick)
system.membus.respLayer1.utilization              0.0                       # Layer utilization (Ratio)
system.membus.respLayer2.occupancy         4804496750                       # Layer occupancy (ticks) (Tick)
system.membus.respLayer2.utilization              0.1                       # Layer utilization (Ratio)
system.membus.snoop_filter.totRequests        1825393                       # Total number of requests made to the snoop filter. (Count)
system.membus.snoop_filter.hitSingleRequests       911930                       # Number of requests hitting in the snoop filter with a single holder of the requested data. (Count)
system.membus.snoop_filter.hitMultiRequests            8                       # Number of requests hitting in the snoop filter with multiple (>1) holders of the requested data. (Count)
system.membus.snoop_filter.totSnoops                0                       # Total number of snoops made to the snoop filter. (Count)
system.membus.snoop_filter.hitSingleSnoops            0                       # Number of snoops hitting in the snoop filter with a single holder of the requested data. (Count)
system.membus.snoop_filter.hitMultiSnoops            0                       # Number of snoops hitting in the snoop filter with multiple (>1) holders of the requested data. (Count)
system.voltage_domain.voltage                       1                       # Voltage in Volts (Volt)
system.workload.inst.arm                            0                       # number of arm instructions executed (Count)
system.workload.inst.quiesce                        0                       # number of quiesce instructions executed (Count)
system.cpu.loadValPred.constant_verification_unit.constLoadHits           14                       # Number of loads marked constant that hit in the CVU CAM (Unspecified)
system.cpu.loadValPred.constant_verification_unit.constLoadMisses       593474                       # Number of loads marked constant that missed in the CVU CAM (Unspecified)
system.cpu.loadValPred.constant_verification_unit.numCAMReplacements       590348                       # Number of CVU CAM entries replaced (Unspecified)
system.cpu.loadValPred.constant_verification_unit.numLoadAccesses       593488                       # Number of loads marked constant which accessed the CVU (Unspecified)
system.cpu.loadValPred.constant_verification_unit.numStoreAccesses      7468705                       # Number of store instructions which accessed the CVU (Unspecified)
system.cpu.loadValPred.constant_verification_unit.numStoreHits         3922                       # Number of stores that hit in the CVU CAM (Unspecified)
system.cpu.loadValPred.constant_verification_unit.numStoreMisses      7464783                       # Number of stores that missed in the CVU CAM (Unspecified)
system.cpu.loadValPred.numConstLoads           593471                       # Number of loads classified as constant (Unspecified)
system.cpu.loadValPred.numConstLoadsCorrect           14                       # Number of constant loads correctly predicted (Unspecified)
system.cpu.loadValPred.numConstLoadsMispredicted       593474                       # Number of constant loads incorrectly predicted (Unspecified)
system.cpu.loadValPred.numConstValOne             248                       # Number of constant loads with value 1 (Unspecified)
system.cpu.loadValPred.numConstValZero           1311                       # Number of constant loads with value 0 (Unspecified)
system.cpu.loadValPred.numPredictableLoads       598722                       # Number of loads classified as predictable (Unspecified)
system.cpu.loadValPred.numPredictableLoadsCorrect       594304                       # Number of loads correctly classified as predictable (Unspecified)
system.cpu.loadValPred.numPredictableLoadsIncorrect         2462                       # Number of loads incorrectly classified as predictable (Unspecified)
system.cpu.loadValPred.totalLoads             1233895                       # Total loads processed by the Load value predictor (Unspecified)

---------- End Simulation Statistics   ----------
