
---------- Begin Simulation Statistics ----------
simSeconds                                   0.003256                       # Number of seconds simulated (Second)
simTicks                                   3255614500                       # Number of ticks simulated (Tick)
finalTick                                  3255614500                       # Number of ticks from beginning of simulation (restored from checkpoints and never reset) (Tick)
simFreq                                  1000000000000                       # The number of ticks per simulated second ((Tick/Second))
hostSeconds                                    107.54                       # Real time elapsed on the host (Second)
hostTickRate                                 30274798                       # The number of ticks simulated per host second (ticks/s) ((Tick/Second))
hostMemory                                    8722524                       # Number of bytes of host memory used (Byte)
simInsts                                     10000004                       # Number of instructions simulated (Count)
simOps                                       18302657                       # Number of ops (including micro ops) simulated (Count)
hostInstRate                                    92992                       # Simulator instruction rate (inst/s) ((Count/Second))
hostOpRate                                     170201                       # Simulator op (including micro ops) rate (op/s) ((Count/Second))
system.clk_domain.clock                          1000                       # Clock period in ticks (Tick)
system.cpu.numCycles                          6511230                       # Number of cpu cycles simulated (Cycle)
system.cpu.numWorkItemsStarted                      0                       # Number of work items this cpu started (Count)
system.cpu.numWorkItemsCompleted                    0                       # Number of work items this cpu completed (Count)
system.cpu.instsAdded                        19752144                       # Number of instructions added to the IQ (excludes non-spec) (Count)
system.cpu.nonSpecInstsAdded                      156                       # Number of non-speculative instructions added to the IQ (Count)
system.cpu.instsIssued                       19179536                       # Number of instructions issued (Count)
system.cpu.squashedInstsIssued                   2233                       # Number of squashed instructions issued (Count)
system.cpu.squashedInstsExamined              1449527                       # Number of squashed instructions iterated over during squash; mainly for profiling (Count)
system.cpu.squashedOperandsExamined           3418026                       # Number of squashed operands that are examined and possibly removed from graph (Count)
system.cpu.squashedNonSpecRemoved                  75                       # Number of squashed non-spec instructions that were removed (Count)
system.cpu.numIssuedDist::samples             6464778                       # Number of insts issued each cycle (Count)
system.cpu.numIssuedDist::mean               2.966774                       # Number of insts issued each cycle (Count)
system.cpu.numIssuedDist::stdev              2.099252                       # Number of insts issued each cycle (Count)
system.cpu.numIssuedDist::underflows                0      0.00%      0.00% # Number of insts issued each cycle (Count)
system.cpu.numIssuedDist::0                    990824     15.33%     15.33% # Number of insts issued each cycle (Count)
system.cpu.numIssuedDist::1                   1080281     16.71%     32.04% # Number of insts issued each cycle (Count)
system.cpu.numIssuedDist::2                    721792     11.16%     43.20% # Number of insts issued each cycle (Count)
system.cpu.numIssuedDist::3                    851048     13.16%     56.37% # Number of insts issued each cycle (Count)
system.cpu.numIssuedDist::4                   1108254     17.14%     73.51% # Number of insts issued each cycle (Count)
system.cpu.numIssuedDist::5                   1068044     16.52%     90.03% # Number of insts issued each cycle (Count)
system.cpu.numIssuedDist::6                    242636      3.75%     93.78% # Number of insts issued each cycle (Count)
system.cpu.numIssuedDist::7                    341717      5.29%     99.07% # Number of insts issued each cycle (Count)
system.cpu.numIssuedDist::8                     60182      0.93%    100.00% # Number of insts issued each cycle (Count)
system.cpu.numIssuedDist::overflows                 0      0.00%    100.00% # Number of insts issued each cycle (Count)
system.cpu.numIssuedDist::min_value                 0                       # Number of insts issued each cycle (Count)
system.cpu.numIssuedDist::max_value                 8                       # Number of insts issued each cycle (Count)
system.cpu.numIssuedDist::total               6464778                       # Number of insts issued each cycle (Count)
system.cpu.statFuBusy::No_OpClass                   0      0.00%      0.00% # attempts to use FU when none available (Count)
system.cpu.statFuBusy::IntAlu                   23852      9.59%      9.59% # attempts to use FU when none available (Count)
system.cpu.statFuBusy::IntMult                      0      0.00%      9.59% # attempts to use FU when none available (Count)
system.cpu.statFuBusy::IntDiv                       0      0.00%      9.59% # attempts to use FU when none available (Count)
system.cpu.statFuBusy::FloatAdd                     0      0.00%      9.59% # attempts to use FU when none available (Count)
system.cpu.statFuBusy::FloatCmp                     0      0.00%      9.59% # attempts to use FU when none available (Count)
system.cpu.statFuBusy::FloatCvt                     0      0.00%      9.59% # attempts to use FU when none available (Count)
system.cpu.statFuBusy::FloatMult                    0      0.00%      9.59% # attempts to use FU when none available (Count)
system.cpu.statFuBusy::FloatMultAcc                 0      0.00%      9.59% # attempts to use FU when none available (Count)
system.cpu.statFuBusy::FloatDiv                     0      0.00%      9.59% # attempts to use FU when none available (Count)
system.cpu.statFuBusy::FloatMisc                    0      0.00%      9.59% # attempts to use FU when none available (Count)
system.cpu.statFuBusy::FloatSqrt                    0      0.00%      9.59% # attempts to use FU when none available (Count)
system.cpu.statFuBusy::SimdAdd                      0      0.00%      9.59% # attempts to use FU when none available (Count)
system.cpu.statFuBusy::SimdAddAcc                   0      0.00%      9.59% # attempts to use FU when none available (Count)
system.cpu.statFuBusy::SimdAlu                      0      0.00%      9.59% # attempts to use FU when none available (Count)
system.cpu.statFuBusy::SimdCmp                      0      0.00%      9.59% # attempts to use FU when none available (Count)
system.cpu.statFuBusy::SimdCvt                      0      0.00%      9.59% # attempts to use FU when none available (Count)
system.cpu.statFuBusy::SimdMisc                     0      0.00%      9.59% # attempts to use FU when none available (Count)
system.cpu.statFuBusy::SimdMult                     0      0.00%      9.59% # attempts to use FU when none available (Count)
system.cpu.statFuBusy::SimdMultAcc                  0      0.00%      9.59% # attempts to use FU when none available (Count)
system.cpu.statFuBusy::SimdShift                    0      0.00%      9.59% # attempts to use FU when none available (Count)
system.cpu.statFuBusy::SimdShiftAcc                 0      0.00%      9.59% # attempts to use FU when none available (Count)
system.cpu.statFuBusy::SimdDiv                      0      0.00%      9.59% # attempts to use FU when none available (Count)
system.cpu.statFuBusy::SimdSqrt                     0      0.00%      9.59% # attempts to use FU when none available (Count)
system.cpu.statFuBusy::SimdFloatAdd                 0      0.00%      9.59% # attempts to use FU when none available (Count)
system.cpu.statFuBusy::SimdFloatAlu                 0      0.00%      9.59% # attempts to use FU when none available (Count)
system.cpu.statFuBusy::SimdFloatCmp                 0      0.00%      9.59% # attempts to use FU when none available (Count)
system.cpu.statFuBusy::SimdFloatCvt                 0      0.00%      9.59% # attempts to use FU when none available (Count)
system.cpu.statFuBusy::SimdFloatDiv                 0      0.00%      9.59% # attempts to use FU when none available (Count)
system.cpu.statFuBusy::SimdFloatMisc                0      0.00%      9.59% # attempts to use FU when none available (Count)
system.cpu.statFuBusy::SimdFloatMult                0      0.00%      9.59% # attempts to use FU when none available (Count)
system.cpu.statFuBusy::SimdFloatMultAcc             0      0.00%      9.59% # attempts to use FU when none available (Count)
system.cpu.statFuBusy::SimdFloatSqrt                0      0.00%      9.59% # attempts to use FU when none available (Count)
system.cpu.statFuBusy::SimdReduceAdd                0      0.00%      9.59% # attempts to use FU when none available (Count)
system.cpu.statFuBusy::SimdReduceAlu                0      0.00%      9.59% # attempts to use FU when none available (Count)
system.cpu.statFuBusy::SimdReduceCmp                0      0.00%      9.59% # attempts to use FU when none available (Count)
system.cpu.statFuBusy::SimdFloatReduceAdd            0      0.00%      9.59% # attempts to use FU when none available (Count)
system.cpu.statFuBusy::SimdFloatReduceCmp            0      0.00%      9.59% # attempts to use FU when none available (Count)
system.cpu.statFuBusy::SimdAes                      0      0.00%      9.59% # attempts to use FU when none available (Count)
system.cpu.statFuBusy::SimdAesMix                   0      0.00%      9.59% # attempts to use FU when none available (Count)
system.cpu.statFuBusy::SimdSha1Hash                 0      0.00%      9.59% # attempts to use FU when none available (Count)
system.cpu.statFuBusy::SimdSha1Hash2                0      0.00%      9.59% # attempts to use FU when none available (Count)
system.cpu.statFuBusy::SimdSha256Hash               0      0.00%      9.59% # attempts to use FU when none available (Count)
system.cpu.statFuBusy::SimdSha256Hash2              0      0.00%      9.59% # attempts to use FU when none available (Count)
system.cpu.statFuBusy::SimdShaSigma2                0      0.00%      9.59% # attempts to use FU when none available (Count)
system.cpu.statFuBusy::SimdShaSigma3                0      0.00%      9.59% # attempts to use FU when none available (Count)
system.cpu.statFuBusy::SimdPredAlu                  0      0.00%      9.59% # attempts to use FU when none available (Count)
system.cpu.statFuBusy::MemRead                 203535     81.84%     91.44% # attempts to use FU when none available (Count)
system.cpu.statFuBusy::MemWrite                 18910      7.60%     99.04% # attempts to use FU when none available (Count)
system.cpu.statFuBusy::FloatMemRead              2386      0.96%    100.00% # attempts to use FU when none available (Count)
system.cpu.statFuBusy::FloatMemWrite                2      0.00%    100.00% # attempts to use FU when none available (Count)
system.cpu.statFuBusy::IprAccess                    0      0.00%    100.00% # attempts to use FU when none available (Count)
system.cpu.statFuBusy::InstPrefetch                 0      0.00%    100.00% # attempts to use FU when none available (Count)
system.cpu.statIssuedInstType_0::No_OpClass         9133      0.05%      0.05% # Number of instructions issued per FU type, per thread (Count)
system.cpu.statIssuedInstType_0::IntAlu      13004406     67.80%     67.85% # Number of instructions issued per FU type, per thread (Count)
system.cpu.statIssuedInstType_0::IntMult          203      0.00%     67.85% # Number of instructions issued per FU type, per thread (Count)
system.cpu.statIssuedInstType_0::IntDiv         24771      0.13%     67.98% # Number of instructions issued per FU type, per thread (Count)
system.cpu.statIssuedInstType_0::FloatAdd       247942      1.29%     69.27% # Number of instructions issued per FU type, per thread (Count)
system.cpu.statIssuedInstType_0::FloatCmp            0      0.00%     69.27% # Number of instructions issued per FU type, per thread (Count)
system.cpu.statIssuedInstType_0::FloatCvt          160      0.00%     69.27% # Number of instructions issued per FU type, per thread (Count)
system.cpu.statIssuedInstType_0::FloatMult            0      0.00%     69.27% # Number of instructions issued per FU type, per thread (Count)
system.cpu.statIssuedInstType_0::FloatMultAcc            0      0.00%     69.27% # Number of instructions issued per FU type, per thread (Count)
system.cpu.statIssuedInstType_0::FloatDiv            0      0.00%     69.27% # Number of instructions issued per FU type, per thread (Count)
system.cpu.statIssuedInstType_0::FloatMisc            0      0.00%     69.27% # Number of instructions issued per FU type, per thread (Count)
system.cpu.statIssuedInstType_0::FloatSqrt            0      0.00%     69.27% # Number of instructions issued per FU type, per thread (Count)
system.cpu.statIssuedInstType_0::SimdAdd            0      0.00%     69.27% # Number of instructions issued per FU type, per thread (Count)
system.cpu.statIssuedInstType_0::SimdAddAcc            0      0.00%     69.27% # Number of instructions issued per FU type, per thread (Count)
system.cpu.statIssuedInstType_0::SimdAlu            2      0.00%     69.27% # Number of instructions issued per FU type, per thread (Count)
system.cpu.statIssuedInstType_0::SimdCmp            0      0.00%     69.27% # Number of instructions issued per FU type, per thread (Count)
system.cpu.statIssuedInstType_0::SimdCvt           16      0.00%     69.28% # Number of instructions issued per FU type, per thread (Count)
system.cpu.statIssuedInstType_0::SimdMisc        40053      0.21%     69.48% # Number of instructions issued per FU type, per thread (Count)
system.cpu.statIssuedInstType_0::SimdMult            0      0.00%     69.48% # Number of instructions issued per FU type, per thread (Count)
system.cpu.statIssuedInstType_0::SimdMultAcc            0      0.00%     69.48% # Number of instructions issued per FU type, per thread (Count)
system.cpu.statIssuedInstType_0::SimdShift            0      0.00%     69.48% # Number of instructions issued per FU type, per thread (Count)
system.cpu.statIssuedInstType_0::SimdShiftAcc            0      0.00%     69.48% # Number of instructions issued per FU type, per thread (Count)
system.cpu.statIssuedInstType_0::SimdDiv            0      0.00%     69.48% # Number of instructions issued per FU type, per thread (Count)
system.cpu.statIssuedInstType_0::SimdSqrt            0      0.00%     69.48% # Number of instructions issued per FU type, per thread (Count)
system.cpu.statIssuedInstType_0::SimdFloatAdd            0      0.00%     69.48% # Number of instructions issued per FU type, per thread (Count)
system.cpu.statIssuedInstType_0::SimdFloatAlu            0      0.00%     69.48% # Number of instructions issued per FU type, per thread (Count)
system.cpu.statIssuedInstType_0::SimdFloatCmp            0      0.00%     69.48% # Number of instructions issued per FU type, per thread (Count)
system.cpu.statIssuedInstType_0::SimdFloatCvt       263821      1.38%     70.86% # Number of instructions issued per FU type, per thread (Count)
system.cpu.statIssuedInstType_0::SimdFloatDiv        20025      0.10%     70.96% # Number of instructions issued per FU type, per thread (Count)
system.cpu.statIssuedInstType_0::SimdFloatMisc            0      0.00%     70.96% # Number of instructions issued per FU type, per thread (Count)
system.cpu.statIssuedInstType_0::SimdFloatMult            0      0.00%     70.96% # Number of instructions issued per FU type, per thread (Count)
system.cpu.statIssuedInstType_0::SimdFloatMultAcc            0      0.00%     70.96% # Number of instructions issued per FU type, per thread (Count)
system.cpu.statIssuedInstType_0::SimdFloatSqrt            0      0.00%     70.96% # Number of instructions issued per FU type, per thread (Count)
system.cpu.statIssuedInstType_0::SimdReduceAdd            0      0.00%     70.96% # Number of instructions issued per FU type, per thread (Count)
system.cpu.statIssuedInstType_0::SimdReduceAlu            0      0.00%     70.96% # Number of instructions issued per FU type, per thread (Count)
system.cpu.statIssuedInstType_0::SimdReduceCmp            0      0.00%     70.96% # Number of instructions issued per FU type, per thread (Count)
system.cpu.statIssuedInstType_0::SimdFloatReduceAdd            0      0.00%     70.96% # Number of instructions issued per FU type, per thread (Count)
system.cpu.statIssuedInstType_0::SimdFloatReduceCmp            0      0.00%     70.96% # Number of instructions issued per FU type, per thread (Count)
system.cpu.statIssuedInstType_0::SimdAes            0      0.00%     70.96% # Number of instructions issued per FU type, per thread (Count)
system.cpu.statIssuedInstType_0::SimdAesMix            0      0.00%     70.96% # Number of instructions issued per FU type, per thread (Count)
system.cpu.statIssuedInstType_0::SimdSha1Hash            0      0.00%     70.96% # Number of instructions issued per FU type, per thread (Count)
system.cpu.statIssuedInstType_0::SimdSha1Hash2            0      0.00%     70.96% # Number of instructions issued per FU type, per thread (Count)
system.cpu.statIssuedInstType_0::SimdSha256Hash            0      0.00%     70.96% # Number of instructions issued per FU type, per thread (Count)
system.cpu.statIssuedInstType_0::SimdSha256Hash2            0      0.00%     70.96% # Number of instructions issued per FU type, per thread (Count)
system.cpu.statIssuedInstType_0::SimdShaSigma2            0      0.00%     70.96% # Number of instructions issued per FU type, per thread (Count)
system.cpu.statIssuedInstType_0::SimdShaSigma3            0      0.00%     70.96% # Number of instructions issued per FU type, per thread (Count)
system.cpu.statIssuedInstType_0::SimdPredAlu            0      0.00%     70.96% # Number of instructions issued per FU type, per thread (Count)
system.cpu.statIssuedInstType_0::MemRead      3494631     18.22%     89.18% # Number of instructions issued per FU type, per thread (Count)
system.cpu.statIssuedInstType_0::MemWrite      1601467      8.35%     97.53% # Number of instructions issued per FU type, per thread (Count)
system.cpu.statIssuedInstType_0::FloatMemRead       472593      2.46%    100.00% # Number of instructions issued per FU type, per thread (Count)
system.cpu.statIssuedInstType_0::FloatMemWrite          313      0.00%    100.00% # Number of instructions issued per FU type, per thread (Count)
system.cpu.statIssuedInstType_0::IprAccess            0      0.00%    100.00% # Number of instructions issued per FU type, per thread (Count)
system.cpu.statIssuedInstType_0::InstPrefetch            0      0.00%    100.00% # Number of instructions issued per FU type, per thread (Count)
system.cpu.statIssuedInstType_0::total       19179536                       # Number of instructions issued per FU type, per thread (Count)
system.cpu.issueRate                         2.945609                       # Inst issue rate ((Count/Cycle))
system.cpu.fuBusy                              248685                       # FU busy when requested (Count)
system.cpu.fuBusyRate                        0.012966                       # FU busy rate (busy events/executed inst) ((Count/Count))
system.cpu.intInstQueueReads                 42982432                       # Number of integer instruction queue reads (Count)
system.cpu.intInstQueueWrites                20130853                       # Number of integer instruction queue writes (Count)
system.cpu.intInstQueueWakeupAccesses        18045902                       # Number of integer instruction queue wakeup accesses (Count)
system.cpu.fpInstQueueReads                   2092331                       # Number of floating instruction queue reads (Count)
system.cpu.fpInstQueueWrites                  1071134                       # Number of floating instruction queue writes (Count)
system.cpu.fpInstQueueWakeupAccesses          1042419                       # Number of floating instruction queue wakeup accesses (Count)
system.cpu.vecInstQueueReads                        0                       # Number of vector instruction queue reads (Count)
system.cpu.vecInstQueueWrites                       0                       # Number of vector instruction queue writes (Count)
system.cpu.vecInstQueueWakeupAccesses               0                       # Number of vector instruction queue wakeup accesses (Count)
system.cpu.intAluAccesses                    18371766                       # Number of integer alu accesses (Count)
system.cpu.fpAluAccesses                      1047322                       # Number of floating point alu accesses (Count)
system.cpu.vecAluAccesses                           0                       # Number of vector alu accesses (Count)
system.cpu.numInsts                          19122091                       # Number of executed instructions (Count)
system.cpu.numLoadInsts                       3956154                       # Number of load instructions executed (Count)
system.cpu.numSquashedInsts                     57440                       # Number of squashed instructions skipped in execute (Count)
system.cpu.numSwp                                   0                       # Number of swp insts executed (Count)
system.cpu.numNop                                   0                       # Number of nop insts executed (Count)
system.cpu.numRefs                            5551475                       # Number of memory reference insts executed (Count)
system.cpu.numBranches                        1837348                       # Number of branches executed (Count)
system.cpu.numStoreInsts                      1595321                       # Number of stores executed (Count)
system.cpu.numRate                           2.936786                       # Inst execution rate ((Count/Cycle))
system.cpu.timesIdled                             521                       # Number of times that the entire CPU went into an idle state and unscheduled itself (Count)
system.cpu.idleCycles                           46452                       # Total number of cycles that the CPU has spent unscheduled due to idling (Cycle)
system.cpu.committedInsts                    10000004                       # Number of Instructions Simulated (Count)
system.cpu.committedOps                      18302657                       # Number of Ops (including micro ops) Simulated (Count)
system.cpu.cpi                               0.651123                       # CPI: Cycles Per Instruction ((Cycle/Count))
system.cpu.totalCpi                          0.651123                       # CPI: Total CPI of All Threads ((Cycle/Count))
system.cpu.ipc                               1.535809                       # IPC: Instructions Per Cycle ((Count/Cycle))
system.cpu.totalIpc                          1.535809                       # IPC: Total IPC of All Threads ((Count/Cycle))
system.cpu.intRegfileReads                   29599777                       # Number of integer regfile reads (Count)
system.cpu.intRegfileWrites                  15945849                       # Number of integer regfile writes (Count)
system.cpu.fpRegfileReads                     1572544                       # Number of floating regfile reads (Count)
system.cpu.fpRegfileWrites                    1270373                       # Number of floating regfile writes (Count)
system.cpu.ccRegfileReads                     7994961                       # number of cc regfile reads (Count)
system.cpu.ccRegfileWrites                    5957675                       # number of cc regfile writes (Count)
system.cpu.miscRegfileReads                   9391664                       # number of misc regfile reads (Count)
system.cpu.miscRegfileWrites                       81                       # number of misc regfile writes (Count)
system.cpu.MemDepUnit__0.insertedLoads        4045597                       # Number of loads inserted to the mem dependence unit. (Count)
system.cpu.MemDepUnit__0.insertedStores       1630374                       # Number of stores inserted to the mem dependence unit. (Count)
system.cpu.MemDepUnit__0.conflictingLoads      1691194                       # Number of conflicting loads. (Count)
system.cpu.MemDepUnit__0.conflictingStores       412269                       # Number of conflicting stores. (Count)
system.cpu.MemDepUnit__1.insertedLoads              0                       # Number of loads inserted to the mem dependence unit. (Count)
system.cpu.MemDepUnit__1.insertedStores             0                       # Number of stores inserted to the mem dependence unit. (Count)
system.cpu.MemDepUnit__1.conflictingLoads            0                       # Number of conflicting loads. (Count)
system.cpu.MemDepUnit__1.conflictingStores            0                       # Number of conflicting stores. (Count)
system.cpu.MemDepUnit__2.insertedLoads              0                       # Number of loads inserted to the mem dependence unit. (Count)
system.cpu.MemDepUnit__2.insertedStores             0                       # Number of stores inserted to the mem dependence unit. (Count)
system.cpu.MemDepUnit__2.conflictingLoads            0                       # Number of conflicting loads. (Count)
system.cpu.MemDepUnit__2.conflictingStores            0                       # Number of conflicting stores. (Count)
system.cpu.MemDepUnit__3.insertedLoads              0                       # Number of loads inserted to the mem dependence unit. (Count)
system.cpu.MemDepUnit__3.insertedStores             0                       # Number of stores inserted to the mem dependence unit. (Count)
system.cpu.MemDepUnit__3.conflictingLoads            0                       # Number of conflicting loads. (Count)
system.cpu.MemDepUnit__3.conflictingStores            0                       # Number of conflicting stores. (Count)
system.cpu.branchPred.lookups                 2027075                       # Number of BP lookups (Count)
system.cpu.branchPred.condPredicted           1404521                       # Number of conditional branches predicted (Count)
system.cpu.branchPred.condIncorrect             15285                       # Number of conditional branches incorrect (Count)
system.cpu.branchPred.BTBLookups               985431                       # Number of BTB lookups (Count)
system.cpu.branchPred.BTBHits                  979226                       # Number of BTB hits (Count)
system.cpu.branchPred.BTBHitRatio            0.993703                       # BTB Hit Ratio (Ratio)
system.cpu.branchPred.RASUsed                  281689                       # Number of times the RAS was used to get a target. (Count)
system.cpu.branchPred.RASIncorrect                  3                       # Number of incorrect RAS predictions. (Count)
system.cpu.branchPred.indirectLookups           25539                       # Number of indirect predictor lookups. (Count)
system.cpu.branchPred.indirectHits              24080                       # Number of indirect target hits. (Count)
system.cpu.branchPred.indirectMisses             1459                       # Number of indirect misses. (Count)
system.cpu.branchPred.indirectMispredicted          261                       # Number of mispredicted indirect branches. (Count)
system.cpu.commit.commitSquashedInsts         1444164                       # The number of squashed insts skipped by commit (Count)
system.cpu.commit.commitNonSpecStalls              81                       # The number of times commit has been forced to stall to communicate backwards (Count)
system.cpu.commit.branchMispredicts             28610                       # The number of times a branch was mispredicted (Count)
system.cpu.commit.numCommittedDist::samples      6260505                       # Number of insts commited each cycle (Count)
system.cpu.commit.numCommittedDist::mean     2.923511                       # Number of insts commited each cycle (Count)
system.cpu.commit.numCommittedDist::stdev     3.080234                       # Number of insts commited each cycle (Count)
system.cpu.commit.numCommittedDist::underflows            0      0.00%      0.00% # Number of insts commited each cycle (Count)
system.cpu.commit.numCommittedDist::0         1216808     19.44%     19.44% # Number of insts commited each cycle (Count)
system.cpu.commit.numCommittedDist::1         2100356     33.55%     52.99% # Number of insts commited each cycle (Count)
system.cpu.commit.numCommittedDist::2          725878     11.59%     64.58% # Number of insts commited each cycle (Count)
system.cpu.commit.numCommittedDist::3          480962      7.68%     72.26% # Number of insts commited each cycle (Count)
system.cpu.commit.numCommittedDist::4           38741      0.62%     72.88% # Number of insts commited each cycle (Count)
system.cpu.commit.numCommittedDist::5          105702      1.69%     74.57% # Number of insts commited each cycle (Count)
system.cpu.commit.numCommittedDist::6           52115      0.83%     75.40% # Number of insts commited each cycle (Count)
system.cpu.commit.numCommittedDist::7            8049      0.13%     75.53% # Number of insts commited each cycle (Count)
system.cpu.commit.numCommittedDist::8         1531894     24.47%    100.00% # Number of insts commited each cycle (Count)
system.cpu.commit.numCommittedDist::overflows            0      0.00%    100.00% # Number of insts commited each cycle (Count)
system.cpu.commit.numCommittedDist::min_value            0                       # Number of insts commited each cycle (Count)
system.cpu.commit.numCommittedDist::max_value            8                       # Number of insts commited each cycle (Count)
system.cpu.commit.numCommittedDist::total      6260505                       # Number of insts commited each cycle (Count)
system.cpu.commit.instsCommitted             10000004                       # Number of instructions committed (Count)
system.cpu.commit.opsCommitted               18302657                       # Number of ops (including micro ops) committed (Count)
system.cpu.commit.memRefs                     5353302                       # Number of memory references committed (Count)
system.cpu.commit.loads                       3810979                       # Number of loads committed (Count)
system.cpu.commit.amos                              0                       # Number of atomic instructions committed (Count)
system.cpu.commit.membars                           0                       # Number of memory barriers committed (Count)
system.cpu.commit.branches                    1789809                       # Number of branches committed (Count)
system.cpu.commit.vectorInstructions                0                       # Number of committed Vector instructions. (Count)
system.cpu.commit.floating                    1027108                       # Number of committed floating point instructions. (Count)
system.cpu.commit.integer                    17763302                       # Number of committed integer instructions. (Count)
system.cpu.commit.functionCalls                264186                       # Number of function calls committed. (Count)
system.cpu.commit.committedInstType_0::No_OpClass         6314      0.03%      0.03% # Class of committed instruction (Count)
system.cpu.commit.committedInstType_0::IntAlu     12356532     67.51%     67.55% # Class of committed instruction (Count)
system.cpu.commit.committedInstType_0::IntMult          163      0.00%     67.55% # Class of committed instruction (Count)
system.cpu.commit.committedInstType_0::IntDiv        22939      0.13%     67.67% # Class of committed instruction (Count)
system.cpu.commit.committedInstType_0::FloatAdd       241629      1.32%     68.99% # Class of committed instruction (Count)
system.cpu.commit.committedInstType_0::FloatCmp            0      0.00%     68.99% # Class of committed instruction (Count)
system.cpu.commit.committedInstType_0::FloatCvt          144      0.00%     68.99% # Class of committed instruction (Count)
system.cpu.commit.committedInstType_0::FloatMult            0      0.00%     68.99% # Class of committed instruction (Count)
system.cpu.commit.committedInstType_0::FloatMultAcc            0      0.00%     68.99% # Class of committed instruction (Count)
system.cpu.commit.committedInstType_0::FloatDiv            0      0.00%     68.99% # Class of committed instruction (Count)
system.cpu.commit.committedInstType_0::FloatMisc            0      0.00%     68.99% # Class of committed instruction (Count)
system.cpu.commit.committedInstType_0::FloatSqrt            0      0.00%     68.99% # Class of committed instruction (Count)
system.cpu.commit.committedInstType_0::SimdAdd            0      0.00%     68.99% # Class of committed instruction (Count)
system.cpu.commit.committedInstType_0::SimdAddAcc            0      0.00%     68.99% # Class of committed instruction (Count)
system.cpu.commit.committedInstType_0::SimdAlu            2      0.00%     68.99% # Class of committed instruction (Count)
system.cpu.commit.committedInstType_0::SimdCmp            0      0.00%     68.99% # Class of committed instruction (Count)
system.cpu.commit.committedInstType_0::SimdCvt           12      0.00%     68.99% # Class of committed instruction (Count)
system.cpu.commit.committedInstType_0::SimdMisc        40042      0.22%     69.21% # Class of committed instruction (Count)
system.cpu.commit.committedInstType_0::SimdMult            0      0.00%     69.21% # Class of committed instruction (Count)
system.cpu.commit.committedInstType_0::SimdMultAcc            0      0.00%     69.21% # Class of committed instruction (Count)
system.cpu.commit.committedInstType_0::SimdShift            0      0.00%     69.21% # Class of committed instruction (Count)
system.cpu.commit.committedInstType_0::SimdShiftAcc            0      0.00%     69.21% # Class of committed instruction (Count)
system.cpu.commit.committedInstType_0::SimdDiv            0      0.00%     69.21% # Class of committed instruction (Count)
system.cpu.commit.committedInstType_0::SimdSqrt            0      0.00%     69.21% # Class of committed instruction (Count)
system.cpu.commit.committedInstType_0::SimdFloatAdd            0      0.00%     69.21% # Class of committed instruction (Count)
system.cpu.commit.committedInstType_0::SimdFloatAlu            0      0.00%     69.21% # Class of committed instruction (Count)
system.cpu.commit.committedInstType_0::SimdFloatCmp            0      0.00%     69.21% # Class of committed instruction (Count)
system.cpu.commit.committedInstType_0::SimdFloatCvt       261555      1.43%     70.64% # Class of committed instruction (Count)
system.cpu.commit.committedInstType_0::SimdFloatDiv        20023      0.11%     70.75% # Class of committed instruction (Count)
system.cpu.commit.committedInstType_0::SimdFloatMisc            0      0.00%     70.75% # Class of committed instruction (Count)
system.cpu.commit.committedInstType_0::SimdFloatMult            0      0.00%     70.75% # Class of committed instruction (Count)
system.cpu.commit.committedInstType_0::SimdFloatMultAcc            0      0.00%     70.75% # Class of committed instruction (Count)
system.cpu.commit.committedInstType_0::SimdFloatSqrt            0      0.00%     70.75% # Class of committed instruction (Count)
system.cpu.commit.committedInstType_0::SimdReduceAdd            0      0.00%     70.75% # Class of committed instruction (Count)
system.cpu.commit.committedInstType_0::SimdReduceAlu            0      0.00%     70.75% # Class of committed instruction (Count)
system.cpu.commit.committedInstType_0::SimdReduceCmp            0      0.00%     70.75% # Class of committed instruction (Count)
system.cpu.commit.committedInstType_0::SimdFloatReduceAdd            0      0.00%     70.75% # Class of committed instruction (Count)
system.cpu.commit.committedInstType_0::SimdFloatReduceCmp            0      0.00%     70.75% # Class of committed instruction (Count)
system.cpu.commit.committedInstType_0::SimdAes            0      0.00%     70.75% # Class of committed instruction (Count)
system.cpu.commit.committedInstType_0::SimdAesMix            0      0.00%     70.75% # Class of committed instruction (Count)
system.cpu.commit.committedInstType_0::SimdSha1Hash            0      0.00%     70.75% # Class of committed instruction (Count)
system.cpu.commit.committedInstType_0::SimdSha1Hash2            0      0.00%     70.75% # Class of committed instruction (Count)
system.cpu.commit.committedInstType_0::SimdSha256Hash            0      0.00%     70.75% # Class of committed instruction (Count)
system.cpu.commit.committedInstType_0::SimdSha256Hash2            0      0.00%     70.75% # Class of committed instruction (Count)
system.cpu.commit.committedInstType_0::SimdShaSigma2            0      0.00%     70.75% # Class of committed instruction (Count)
system.cpu.commit.committedInstType_0::SimdShaSigma3            0      0.00%     70.75% # Class of committed instruction (Count)
system.cpu.commit.committedInstType_0::SimdPredAlu            0      0.00%     70.75% # Class of committed instruction (Count)
system.cpu.commit.committedInstType_0::MemRead      3347597     18.29%     89.04% # Class of committed instruction (Count)
system.cpu.commit.committedInstType_0::MemWrite      1542011      8.43%     97.47% # Class of committed instruction (Count)
system.cpu.commit.committedInstType_0::FloatMemRead       463382      2.53%    100.00% # Class of committed instruction (Count)
system.cpu.commit.committedInstType_0::FloatMemWrite          312      0.00%    100.00% # Class of committed instruction (Count)
system.cpu.commit.committedInstType_0::IprAccess            0      0.00%    100.00% # Class of committed instruction (Count)
system.cpu.commit.committedInstType_0::InstPrefetch            0      0.00%    100.00% # Class of committed instruction (Count)
system.cpu.commit.committedInstType_0::total     18302657                       # Class of committed instruction (Count)
system.cpu.commit.commitEligibleSamples       1531894                       # number cycles where commit BW limit reached (Cycle)
system.cpu.dcache.demandHits::cpu.data        3931289                       # number of demand (read+write) hits (Count)
system.cpu.dcache.demandHits::total           3931289                       # number of demand (read+write) hits (Count)
system.cpu.dcache.overallHits::cpu.data       3931289                       # number of overall hits (Count)
system.cpu.dcache.overallHits::total          3931289                       # number of overall hits (Count)
system.cpu.dcache.demandMisses::cpu.data        29222                       # number of demand (read+write) misses (Count)
system.cpu.dcache.demandMisses::total           29222                       # number of demand (read+write) misses (Count)
system.cpu.dcache.overallMisses::cpu.data        29222                       # number of overall misses (Count)
system.cpu.dcache.overallMisses::total          29222                       # number of overall misses (Count)
system.cpu.dcache.demandMissLatency::cpu.data   1771548978                       # number of demand (read+write) miss ticks (Tick)
system.cpu.dcache.demandMissLatency::total   1771548978                       # number of demand (read+write) miss ticks (Tick)
system.cpu.dcache.overallMissLatency::cpu.data   1771548978                       # number of overall miss ticks (Tick)
system.cpu.dcache.overallMissLatency::total   1771548978                       # number of overall miss ticks (Tick)
system.cpu.dcache.demandAccesses::cpu.data      3960511                       # number of demand (read+write) accesses (Count)
system.cpu.dcache.demandAccesses::total       3960511                       # number of demand (read+write) accesses (Count)
system.cpu.dcache.overallAccesses::cpu.data      3960511                       # number of overall (read+write) accesses (Count)
system.cpu.dcache.overallAccesses::total      3960511                       # number of overall (read+write) accesses (Count)
system.cpu.dcache.demandMissRate::cpu.data     0.007378                       # miss rate for demand accesses (Ratio)
system.cpu.dcache.demandMissRate::total      0.007378                       # miss rate for demand accesses (Ratio)
system.cpu.dcache.overallMissRate::cpu.data     0.007378                       # miss rate for overall accesses (Ratio)
system.cpu.dcache.overallMissRate::total     0.007378                       # miss rate for overall accesses (Ratio)
system.cpu.dcache.demandAvgMissLatency::cpu.data 60623.810075                       # average overall miss latency in ticks ((Tick/Count))
system.cpu.dcache.demandAvgMissLatency::total 60623.810075                       # average overall miss latency in ticks ((Tick/Count))
system.cpu.dcache.overallAvgMissLatency::cpu.data 60623.810075                       # average overall miss latency ((Tick/Count))
system.cpu.dcache.overallAvgMissLatency::total 60623.810075                       # average overall miss latency ((Tick/Count))
system.cpu.dcache.blockedCycles::no_mshrs        22108                       # number of cycles access was blocked (Cycle)
system.cpu.dcache.blockedCycles::no_targets         1003                       # number of cycles access was blocked (Cycle)
system.cpu.dcache.blockedCauses::no_mshrs          504                       # number of times access was blocked (Count)
system.cpu.dcache.blockedCauses::no_targets            7                       # number of times access was blocked (Count)
system.cpu.dcache.avgBlocked::no_mshrs      43.865079                       # average number of cycles each access was blocked ((Cycle/Count))
system.cpu.dcache.avgBlocked::no_targets   143.285714                       # average number of cycles each access was blocked ((Cycle/Count))
system.cpu.dcache.writebacks::writebacks         1650                       # number of writebacks (Count)
system.cpu.dcache.writebacks::total              1650                       # number of writebacks (Count)
system.cpu.dcache.demandMshrHits::cpu.data        19255                       # number of demand (read+write) MSHR hits (Count)
system.cpu.dcache.demandMshrHits::total         19255                       # number of demand (read+write) MSHR hits (Count)
system.cpu.dcache.overallMshrHits::cpu.data        19255                       # number of overall MSHR hits (Count)
system.cpu.dcache.overallMshrHits::total        19255                       # number of overall MSHR hits (Count)
system.cpu.dcache.demandMshrMisses::cpu.data         9967                       # number of demand (read+write) MSHR misses (Count)
system.cpu.dcache.demandMshrMisses::total         9967                       # number of demand (read+write) MSHR misses (Count)
system.cpu.dcache.overallMshrMisses::cpu.data         9967                       # number of overall MSHR misses (Count)
system.cpu.dcache.overallMshrMisses::total         9967                       # number of overall MSHR misses (Count)
system.cpu.dcache.demandMshrMissLatency::cpu.data    631518978                       # number of demand (read+write) MSHR miss ticks (Tick)
system.cpu.dcache.demandMshrMissLatency::total    631518978                       # number of demand (read+write) MSHR miss ticks (Tick)
system.cpu.dcache.overallMshrMissLatency::cpu.data    631518978                       # number of overall MSHR miss ticks (Tick)
system.cpu.dcache.overallMshrMissLatency::total    631518978                       # number of overall MSHR miss ticks (Tick)
system.cpu.dcache.demandMshrMissRate::cpu.data     0.002517                       # mshr miss ratio for demand accesses (Ratio)
system.cpu.dcache.demandMshrMissRate::total     0.002517                       # mshr miss ratio for demand accesses (Ratio)
system.cpu.dcache.overallMshrMissRate::cpu.data     0.002517                       # mshr miss ratio for overall accesses (Ratio)
system.cpu.dcache.overallMshrMissRate::total     0.002517                       # mshr miss ratio for overall accesses (Ratio)
system.cpu.dcache.demandAvgMshrMissLatency::cpu.data 63360.989064                       # average overall mshr miss latency ((Tick/Count))
system.cpu.dcache.demandAvgMshrMissLatency::total 63360.989064                       # average overall mshr miss latency ((Tick/Count))
system.cpu.dcache.overallAvgMshrMissLatency::cpu.data 63360.989064                       # average overall mshr miss latency ((Tick/Count))
system.cpu.dcache.overallAvgMshrMissLatency::total 63360.989064                       # average overall mshr miss latency ((Tick/Count))
system.cpu.dcache.replacements                   8942                       # number of replacements (Count)
system.cpu.dcache.ReadReq.hits::cpu.data      2391011                       # number of ReadReq hits (Count)
system.cpu.dcache.ReadReq.hits::total         2391011                       # number of ReadReq hits (Count)
system.cpu.dcache.ReadReq.misses::cpu.data        27173                       # number of ReadReq misses (Count)
system.cpu.dcache.ReadReq.misses::total         27173                       # number of ReadReq misses (Count)
system.cpu.dcache.ReadReq.missLatency::cpu.data   1653177000                       # number of ReadReq miss ticks (Tick)
system.cpu.dcache.ReadReq.missLatency::total   1653177000                       # number of ReadReq miss ticks (Tick)
system.cpu.dcache.ReadReq.accesses::cpu.data      2418184                       # number of ReadReq accesses(hits+misses) (Count)
system.cpu.dcache.ReadReq.accesses::total      2418184                       # number of ReadReq accesses(hits+misses) (Count)
system.cpu.dcache.ReadReq.missRate::cpu.data     0.011237                       # miss rate for ReadReq accesses (Ratio)
system.cpu.dcache.ReadReq.missRate::total     0.011237                       # miss rate for ReadReq accesses (Ratio)
system.cpu.dcache.ReadReq.avgMissLatency::cpu.data 60838.957789                       # average ReadReq miss latency ((Tick/Count))
system.cpu.dcache.ReadReq.avgMissLatency::total 60838.957789                       # average ReadReq miss latency ((Tick/Count))
system.cpu.dcache.ReadReq.mshrHits::cpu.data        19246                       # number of ReadReq MSHR hits (Count)
system.cpu.dcache.ReadReq.mshrHits::total        19246                       # number of ReadReq MSHR hits (Count)
system.cpu.dcache.ReadReq.mshrMisses::cpu.data         7927                       # number of ReadReq MSHR misses (Count)
system.cpu.dcache.ReadReq.mshrMisses::total         7927                       # number of ReadReq MSHR misses (Count)
system.cpu.dcache.ReadReq.mshrMissLatency::cpu.data    515574000                       # number of ReadReq MSHR miss ticks (Tick)
system.cpu.dcache.ReadReq.mshrMissLatency::total    515574000                       # number of ReadReq MSHR miss ticks (Tick)
system.cpu.dcache.ReadReq.mshrMissRate::cpu.data     0.003278                       # mshr miss rate for ReadReq accesses (Ratio)
system.cpu.dcache.ReadReq.mshrMissRate::total     0.003278                       # mshr miss rate for ReadReq accesses (Ratio)
system.cpu.dcache.ReadReq.avgMshrMissLatency::cpu.data 65040.242210                       # average ReadReq mshr miss latency ((Tick/Count))
system.cpu.dcache.ReadReq.avgMshrMissLatency::total 65040.242210                       # average ReadReq mshr miss latency ((Tick/Count))
system.cpu.dcache.WriteReq.hits::cpu.data      1540278                       # number of WriteReq hits (Count)
system.cpu.dcache.WriteReq.hits::total        1540278                       # number of WriteReq hits (Count)
system.cpu.dcache.WriteReq.misses::cpu.data         2049                       # number of WriteReq misses (Count)
system.cpu.dcache.WriteReq.misses::total         2049                       # number of WriteReq misses (Count)
system.cpu.dcache.WriteReq.missLatency::cpu.data    118371978                       # number of WriteReq miss ticks (Tick)
system.cpu.dcache.WriteReq.missLatency::total    118371978                       # number of WriteReq miss ticks (Tick)
system.cpu.dcache.WriteReq.accesses::cpu.data      1542327                       # number of WriteReq accesses(hits+misses) (Count)
system.cpu.dcache.WriteReq.accesses::total      1542327                       # number of WriteReq accesses(hits+misses) (Count)
system.cpu.dcache.WriteReq.missRate::cpu.data     0.001329                       # miss rate for WriteReq accesses (Ratio)
system.cpu.dcache.WriteReq.missRate::total     0.001329                       # miss rate for WriteReq accesses (Ratio)
system.cpu.dcache.WriteReq.avgMissLatency::cpu.data 57770.609078                       # average WriteReq miss latency ((Tick/Count))
system.cpu.dcache.WriteReq.avgMissLatency::total 57770.609078                       # average WriteReq miss latency ((Tick/Count))
system.cpu.dcache.WriteReq.mshrHits::cpu.data            9                       # number of WriteReq MSHR hits (Count)
system.cpu.dcache.WriteReq.mshrHits::total            9                       # number of WriteReq MSHR hits (Count)
system.cpu.dcache.WriteReq.mshrMisses::cpu.data         2040                       # number of WriteReq MSHR misses (Count)
system.cpu.dcache.WriteReq.mshrMisses::total         2040                       # number of WriteReq MSHR misses (Count)
system.cpu.dcache.WriteReq.mshrMissLatency::cpu.data    115944978                       # number of WriteReq MSHR miss ticks (Tick)
system.cpu.dcache.WriteReq.mshrMissLatency::total    115944978                       # number of WriteReq MSHR miss ticks (Tick)
system.cpu.dcache.WriteReq.mshrMissRate::cpu.data     0.001323                       # mshr miss rate for WriteReq accesses (Ratio)
system.cpu.dcache.WriteReq.mshrMissRate::total     0.001323                       # mshr miss rate for WriteReq accesses (Ratio)
system.cpu.dcache.WriteReq.avgMshrMissLatency::cpu.data 56835.773529                       # average WriteReq mshr miss latency ((Tick/Count))
system.cpu.dcache.WriteReq.avgMshrMissLatency::total 56835.773529                       # average WriteReq mshr miss latency ((Tick/Count))
system.cpu.dcache.power_state.pwrStateResidencyTicks::UNDEFINED   3255614500                       # Cumulative time (in ticks) in various power states (Tick)
system.cpu.dcache.tags.tagsInUse          1006.683379                       # Average ticks per tags in use ((Tick/Count))
system.cpu.dcache.tags.totalRefs              3941256                       # Total number of references to valid blocks. (Count)
system.cpu.dcache.tags.sampledRefs               9966                       # Sample count of references to valid blocks. (Count)
system.cpu.dcache.tags.avgRefs             395.470199                       # Average number of references to valid blocks. ((Count/Count))
system.cpu.dcache.tags.warmupTick              148000                       # The tick when the warmup percentage was hit. (Tick)
system.cpu.dcache.tags.occupancies::cpu.data  1006.683379                       # Average occupied blocks per tick, per requestor ((Count/Tick))
system.cpu.dcache.tags.avgOccs::cpu.data     0.983089                       # Average percentage of cache occupancy ((Ratio/Tick))
system.cpu.dcache.tags.avgOccs::total        0.983089                       # Average percentage of cache occupancy ((Ratio/Tick))
system.cpu.dcache.tags.occupanciesTaskId::1024         1024                       # Occupied blocks per task id (Count)
system.cpu.dcache.tags.ageTaskId_1024::1            3                       # Occupied blocks per task id, per block age (Count)
system.cpu.dcache.tags.ageTaskId_1024::3         1021                       # Occupied blocks per task id, per block age (Count)
system.cpu.dcache.tags.ratioOccsTaskId::1024            1                       # Ratio of occupied blocks and all blocks, per task id (Ratio)
system.cpu.dcache.tags.tagAccesses            7930988                       # Number of tag accesses (Count)
system.cpu.dcache.tags.dataAccesses           7930988                       # Number of data accesses (Count)
system.cpu.dcache.tags.power_state.pwrStateResidencyTicks::UNDEFINED   3255614500                       # Cumulative time (in ticks) in various power states (Tick)
system.cpu.decode.idleCycles                  1021812                       # Number of cycles decode is idle (Cycle)
system.cpu.decode.blockedCycles               2581960                       # Number of cycles decode is blocked (Cycle)
system.cpu.decode.runCycles                   1861866                       # Number of cycles decode is running (Cycle)
system.cpu.decode.unblockCycles                970115                       # Number of cycles decode is unblocking (Cycle)
system.cpu.decode.squashCycles                  29025                       # Number of cycles decode is squashing (Cycle)
system.cpu.decode.branchResolved               958348                       # Number of times decode resolved a branch (Count)
system.cpu.decode.branchMispred                   525                       # Number of times decode detected a branch misprediction (Count)
system.cpu.decode.decodedInsts               20094685                       # Number of instructions handled by decode (Count)
system.cpu.decode.squashedInsts                  2427                       # Number of squashed instructions handled by decode (Count)
system.cpu.dtb_walker_cache.blockedCycles::no_mshrs            0                       # number of cycles access was blocked (Cycle)
system.cpu.dtb_walker_cache.blockedCycles::no_targets            0                       # number of cycles access was blocked (Cycle)
system.cpu.dtb_walker_cache.blockedCauses::no_mshrs            0                       # number of times access was blocked (Count)
system.cpu.dtb_walker_cache.blockedCauses::no_targets            0                       # number of times access was blocked (Count)
system.cpu.dtb_walker_cache.avgBlocked::no_mshrs          nan                       # average number of cycles each access was blocked ((Cycle/Count))
system.cpu.dtb_walker_cache.avgBlocked::no_targets          nan                       # average number of cycles each access was blocked ((Cycle/Count))
system.cpu.dtb_walker_cache.replacements            0                       # number of replacements (Count)
system.cpu.dtb_walker_cache.power_state.pwrStateResidencyTicks::UNDEFINED   3255614500                       # Cumulative time (in ticks) in various power states (Tick)
system.cpu.dtb_walker_cache.tags.tagsInUse            0                       # Average ticks per tags in use ((Tick/Count))
system.cpu.dtb_walker_cache.tags.totalRefs            0                       # Total number of references to valid blocks. (Count)
system.cpu.dtb_walker_cache.tags.sampledRefs            0                       # Sample count of references to valid blocks. (Count)
system.cpu.dtb_walker_cache.tags.avgRefs          nan                       # Average number of references to valid blocks. ((Count/Count))
system.cpu.dtb_walker_cache.tags.warmupTick            0                       # The tick when the warmup percentage was hit. (Tick)
system.cpu.dtb_walker_cache.tags.tagAccesses            0                       # Number of tag accesses (Count)
system.cpu.dtb_walker_cache.tags.dataAccesses            0                       # Number of data accesses (Count)
system.cpu.dtb_walker_cache.tags.power_state.pwrStateResidencyTicks::UNDEFINED   3255614500                       # Cumulative time (in ticks) in various power states (Tick)
system.cpu.fetch.icacheStallCycles            1780652                       # Number of cycles fetch is stalled on an Icache miss (Cycle)
system.cpu.fetch.insts                       11229976                       # Number of instructions fetch has processed (Count)
system.cpu.fetch.branches                     2027075                       # Number of branches that fetch encountered (Count)
system.cpu.fetch.predictedBranches            1284995                       # Number of branches that fetch has predicted taken (Count)
system.cpu.fetch.cycles                       4653193                       # Number of cycles fetch has run and was not squashing or blocked (Cycle)
system.cpu.fetch.squashCycles                   59058                       # Number of cycles fetch has spent squashing (Cycle)
system.cpu.fetch.miscStallCycles                  174                       # Number of cycles fetch has spent waiting on interrupts, or bad addresses, or out of MSHRs (Cycle)
system.cpu.fetch.pendingTrapStallCycles          1230                       # Number of stall cycles due to pending traps (Cycle)
system.cpu.fetch.cacheLines                   1743442                       # Number of cache lines fetched (Count)
system.cpu.fetch.icacheSquashes                  6582                       # Number of outstanding Icache misses that were squashed (Count)
system.cpu.fetch.nisnDist::samples            6464778                       # Number of instructions fetched each cycle (Total) (Count)
system.cpu.fetch.nisnDist::mean              3.165814                       # Number of instructions fetched each cycle (Total) (Count)
system.cpu.fetch.nisnDist::stdev             3.304500                       # Number of instructions fetched each cycle (Total) (Count)
system.cpu.fetch.nisnDist::underflows               0      0.00%      0.00% # Number of instructions fetched each cycle (Total) (Count)
system.cpu.fetch.nisnDist::0                  2835451     43.86%     43.86% # Number of instructions fetched each cycle (Total) (Count)
system.cpu.fetch.nisnDist::1                   179083      2.77%     46.63% # Number of instructions fetched each cycle (Total) (Count)
system.cpu.fetch.nisnDist::2                   286553      4.43%     51.06% # Number of instructions fetched each cycle (Total) (Count)
system.cpu.fetch.nisnDist::3                   360010      5.57%     56.63% # Number of instructions fetched each cycle (Total) (Count)
system.cpu.fetch.nisnDist::4                   459936      7.11%     63.75% # Number of instructions fetched each cycle (Total) (Count)
system.cpu.fetch.nisnDist::5                   371682      5.75%     69.50% # Number of instructions fetched each cycle (Total) (Count)
system.cpu.fetch.nisnDist::6                   283221      4.38%     73.88% # Number of instructions fetched each cycle (Total) (Count)
system.cpu.fetch.nisnDist::7                   274152      4.24%     78.12% # Number of instructions fetched each cycle (Total) (Count)
system.cpu.fetch.nisnDist::8                  1414690     21.88%    100.00% # Number of instructions fetched each cycle (Total) (Count)
system.cpu.fetch.nisnDist::overflows                0      0.00%    100.00% # Number of instructions fetched each cycle (Total) (Count)
system.cpu.fetch.nisnDist::min_value                0                       # Number of instructions fetched each cycle (Total) (Count)
system.cpu.fetch.nisnDist::max_value                8                       # Number of instructions fetched each cycle (Total) (Count)
system.cpu.fetch.nisnDist::total              6464778                       # Number of instructions fetched each cycle (Total) (Count)
system.cpu.fetch.branchRate                  0.311320                       # Number of branch fetches per cycle (Ratio)
system.cpu.fetch.rate                        1.724709                       # Number of inst fetches per cycle ((Count/Cycle))
system.cpu.icache.demandHits::cpu.inst        1742143                       # number of demand (read+write) hits (Count)
system.cpu.icache.demandHits::total           1742143                       # number of demand (read+write) hits (Count)
system.cpu.icache.overallHits::cpu.inst       1742143                       # number of overall hits (Count)
system.cpu.icache.overallHits::total          1742143                       # number of overall hits (Count)
system.cpu.icache.demandMisses::cpu.inst         1299                       # number of demand (read+write) misses (Count)
system.cpu.icache.demandMisses::total            1299                       # number of demand (read+write) misses (Count)
system.cpu.icache.overallMisses::cpu.inst         1299                       # number of overall misses (Count)
system.cpu.icache.overallMisses::total           1299                       # number of overall misses (Count)
system.cpu.icache.demandMissLatency::cpu.inst     74880500                       # number of demand (read+write) miss ticks (Tick)
system.cpu.icache.demandMissLatency::total     74880500                       # number of demand (read+write) miss ticks (Tick)
system.cpu.icache.overallMissLatency::cpu.inst     74880500                       # number of overall miss ticks (Tick)
system.cpu.icache.overallMissLatency::total     74880500                       # number of overall miss ticks (Tick)
system.cpu.icache.demandAccesses::cpu.inst      1743442                       # number of demand (read+write) accesses (Count)
system.cpu.icache.demandAccesses::total       1743442                       # number of demand (read+write) accesses (Count)
system.cpu.icache.overallAccesses::cpu.inst      1743442                       # number of overall (read+write) accesses (Count)
system.cpu.icache.overallAccesses::total      1743442                       # number of overall (read+write) accesses (Count)
system.cpu.icache.demandMissRate::cpu.inst     0.000745                       # miss rate for demand accesses (Ratio)
system.cpu.icache.demandMissRate::total      0.000745                       # miss rate for demand accesses (Ratio)
system.cpu.icache.overallMissRate::cpu.inst     0.000745                       # miss rate for overall accesses (Ratio)
system.cpu.icache.overallMissRate::total     0.000745                       # miss rate for overall accesses (Ratio)
system.cpu.icache.demandAvgMissLatency::cpu.inst 57644.726713                       # average overall miss latency in ticks ((Tick/Count))
system.cpu.icache.demandAvgMissLatency::total 57644.726713                       # average overall miss latency in ticks ((Tick/Count))
system.cpu.icache.overallAvgMissLatency::cpu.inst 57644.726713                       # average overall miss latency ((Tick/Count))
system.cpu.icache.overallAvgMissLatency::total 57644.726713                       # average overall miss latency ((Tick/Count))
system.cpu.icache.blockedCycles::no_mshrs            0                       # number of cycles access was blocked (Cycle)
system.cpu.icache.blockedCycles::no_targets            0                       # number of cycles access was blocked (Cycle)
system.cpu.icache.blockedCauses::no_mshrs            0                       # number of times access was blocked (Count)
system.cpu.icache.blockedCauses::no_targets            0                       # number of times access was blocked (Count)
system.cpu.icache.avgBlocked::no_mshrs            nan                       # average number of cycles each access was blocked ((Cycle/Count))
system.cpu.icache.avgBlocked::no_targets          nan                       # average number of cycles each access was blocked ((Cycle/Count))
system.cpu.icache.writebacks::writebacks          366                       # number of writebacks (Count)
system.cpu.icache.writebacks::total               366                       # number of writebacks (Count)
system.cpu.icache.demandMshrHits::cpu.inst          453                       # number of demand (read+write) MSHR hits (Count)
system.cpu.icache.demandMshrHits::total           453                       # number of demand (read+write) MSHR hits (Count)
system.cpu.icache.overallMshrHits::cpu.inst          453                       # number of overall MSHR hits (Count)
system.cpu.icache.overallMshrHits::total          453                       # number of overall MSHR hits (Count)
system.cpu.icache.demandMshrMisses::cpu.inst          846                       # number of demand (read+write) MSHR misses (Count)
system.cpu.icache.demandMshrMisses::total          846                       # number of demand (read+write) MSHR misses (Count)
system.cpu.icache.overallMshrMisses::cpu.inst          846                       # number of overall MSHR misses (Count)
system.cpu.icache.overallMshrMisses::total          846                       # number of overall MSHR misses (Count)
system.cpu.icache.demandMshrMissLatency::cpu.inst     52551500                       # number of demand (read+write) MSHR miss ticks (Tick)
system.cpu.icache.demandMshrMissLatency::total     52551500                       # number of demand (read+write) MSHR miss ticks (Tick)
system.cpu.icache.overallMshrMissLatency::cpu.inst     52551500                       # number of overall MSHR miss ticks (Tick)
system.cpu.icache.overallMshrMissLatency::total     52551500                       # number of overall MSHR miss ticks (Tick)
system.cpu.icache.demandMshrMissRate::cpu.inst     0.000485                       # mshr miss ratio for demand accesses (Ratio)
system.cpu.icache.demandMshrMissRate::total     0.000485                       # mshr miss ratio for demand accesses (Ratio)
system.cpu.icache.overallMshrMissRate::cpu.inst     0.000485                       # mshr miss ratio for overall accesses (Ratio)
system.cpu.icache.overallMshrMissRate::total     0.000485                       # mshr miss ratio for overall accesses (Ratio)
system.cpu.icache.demandAvgMshrMissLatency::cpu.inst 62117.612293                       # average overall mshr miss latency ((Tick/Count))
system.cpu.icache.demandAvgMshrMissLatency::total 62117.612293                       # average overall mshr miss latency ((Tick/Count))
system.cpu.icache.overallAvgMshrMissLatency::cpu.inst 62117.612293                       # average overall mshr miss latency ((Tick/Count))
system.cpu.icache.overallAvgMshrMissLatency::total 62117.612293                       # average overall mshr miss latency ((Tick/Count))
system.cpu.icache.replacements                    366                       # number of replacements (Count)
system.cpu.icache.ReadReq.hits::cpu.inst      1742143                       # number of ReadReq hits (Count)
system.cpu.icache.ReadReq.hits::total         1742143                       # number of ReadReq hits (Count)
system.cpu.icache.ReadReq.misses::cpu.inst         1299                       # number of ReadReq misses (Count)
system.cpu.icache.ReadReq.misses::total          1299                       # number of ReadReq misses (Count)
system.cpu.icache.ReadReq.missLatency::cpu.inst     74880500                       # number of ReadReq miss ticks (Tick)
system.cpu.icache.ReadReq.missLatency::total     74880500                       # number of ReadReq miss ticks (Tick)
system.cpu.icache.ReadReq.accesses::cpu.inst      1743442                       # number of ReadReq accesses(hits+misses) (Count)
system.cpu.icache.ReadReq.accesses::total      1743442                       # number of ReadReq accesses(hits+misses) (Count)
system.cpu.icache.ReadReq.missRate::cpu.inst     0.000745                       # miss rate for ReadReq accesses (Ratio)
system.cpu.icache.ReadReq.missRate::total     0.000745                       # miss rate for ReadReq accesses (Ratio)
system.cpu.icache.ReadReq.avgMissLatency::cpu.inst 57644.726713                       # average ReadReq miss latency ((Tick/Count))
system.cpu.icache.ReadReq.avgMissLatency::total 57644.726713                       # average ReadReq miss latency ((Tick/Count))
system.cpu.icache.ReadReq.mshrHits::cpu.inst          453                       # number of ReadReq MSHR hits (Count)
system.cpu.icache.ReadReq.mshrHits::total          453                       # number of ReadReq MSHR hits (Count)
system.cpu.icache.ReadReq.mshrMisses::cpu.inst          846                       # number of ReadReq MSHR misses (Count)
system.cpu.icache.ReadReq.mshrMisses::total          846                       # number of ReadReq MSHR misses (Count)
system.cpu.icache.ReadReq.mshrMissLatency::cpu.inst     52551500                       # number of ReadReq MSHR miss ticks (Tick)
system.cpu.icache.ReadReq.mshrMissLatency::total     52551500                       # number of ReadReq MSHR miss ticks (Tick)
system.cpu.icache.ReadReq.mshrMissRate::cpu.inst     0.000485                       # mshr miss rate for ReadReq accesses (Ratio)
system.cpu.icache.ReadReq.mshrMissRate::total     0.000485                       # mshr miss rate for ReadReq accesses (Ratio)
system.cpu.icache.ReadReq.avgMshrMissLatency::cpu.inst 62117.612293                       # average ReadReq mshr miss latency ((Tick/Count))
system.cpu.icache.ReadReq.avgMshrMissLatency::total 62117.612293                       # average ReadReq mshr miss latency ((Tick/Count))
system.cpu.icache.power_state.pwrStateResidencyTicks::UNDEFINED   3255614500                       # Cumulative time (in ticks) in various power states (Tick)
system.cpu.icache.tags.tagsInUse           471.045036                       # Average ticks per tags in use ((Tick/Count))
system.cpu.icache.tags.totalRefs              1742989                       # Total number of references to valid blocks. (Count)
system.cpu.icache.tags.sampledRefs                846                       # Sample count of references to valid blocks. (Count)
system.cpu.icache.tags.avgRefs            2060.270686                       # Average number of references to valid blocks. ((Count/Count))
system.cpu.icache.tags.warmupTick               77000                       # The tick when the warmup percentage was hit. (Tick)
system.cpu.icache.tags.occupancies::cpu.inst   471.045036                       # Average occupied blocks per tick, per requestor ((Count/Tick))
system.cpu.icache.tags.avgOccs::cpu.inst     0.920010                       # Average percentage of cache occupancy ((Ratio/Tick))
system.cpu.icache.tags.avgOccs::total        0.920010                       # Average percentage of cache occupancy ((Ratio/Tick))
system.cpu.icache.tags.occupanciesTaskId::1024          480                       # Occupied blocks per task id (Count)
system.cpu.icache.tags.ageTaskId_1024::3          480                       # Occupied blocks per task id, per block age (Count)
system.cpu.icache.tags.ratioOccsTaskId::1024     0.937500                       # Ratio of occupied blocks and all blocks, per task id (Ratio)
system.cpu.icache.tags.tagAccesses            3487730                       # Number of tag accesses (Count)
system.cpu.icache.tags.dataAccesses           3487730                       # Number of data accesses (Count)
system.cpu.icache.tags.power_state.pwrStateResidencyTicks::UNDEFINED   3255614500                       # Cumulative time (in ticks) in various power states (Tick)
system.cpu.iew.idleCycles                           0                       # Number of cycles IEW is idle (Cycle)
system.cpu.iew.squashCycles                     29025                       # Number of cycles IEW is squashing (Cycle)
system.cpu.iew.blockCycles                     570613                       # Number of cycles IEW is blocking (Cycle)
system.cpu.iew.unblockCycles                    12998                       # Number of cycles IEW is unblocking (Cycle)
system.cpu.iew.dispatchedInsts               19752300                       # Number of instructions dispatched to IQ (Count)
system.cpu.iew.dispSquashedInsts                 3268                       # Number of squashed instructions skipped by dispatch (Count)
system.cpu.iew.dispLoadInsts                  4045597                       # Number of dispatched load instructions (Count)
system.cpu.iew.dispStoreInsts                 1630374                       # Number of dispatched store instructions (Count)
system.cpu.iew.dispNonSpecInsts                   120                       # Number of dispatched non-speculative instructions (Count)
system.cpu.iew.iqFullEvents                      2806                       # Number of times the IQ has become full, causing a stall (Count)
system.cpu.iew.lsqFullEvents                     7221                       # Number of times the LSQ has become full, causing a stall (Count)
system.cpu.iew.memOrderViolationEvents            174                       # Number of memory order violations (Count)
system.cpu.iew.predictedTakenIncorrect           8039                       # Number of branches that were predicted taken incorrectly (Count)
system.cpu.iew.predictedNotTakenIncorrect         7814                       # Number of branches that were predicted not taken incorrectly (Count)
system.cpu.iew.branchMispredicts                15853                       # Number of branch mispredicts detected at execute (Count)
system.cpu.iew.mispredictedLVP                  15778                       # mispredictedLVP (Count)
system.cpu.iew.LvpCorrect                     2716811                       # LvpCorrect (Count)
system.cpu.iew.instsToCommit                 19099171                       # Cumulative count of insts sent to commit (Count)
system.cpu.iew.writebackCount                19088321                       # Cumulative count of insts written-back (Count)
system.cpu.iew.producerInst                  14535464                       # Number of instructions producing a value (Count)
system.cpu.iew.consumerInst                  23003831                       # Number of instructions consuming a value (Count)
system.cpu.iew.wbRate                        2.931600                       # Insts written-back per cycle ((Count/Cycle))
system.cpu.iew.wbFanout                      0.631871                       # Average fanout of values written-back ((Count/Count))
system.cpu.interrupts.clk_domain.clock           8000                       # Clock period in ticks (Tick)
system.cpu.itb_walker_cache.blockedCycles::no_mshrs            0                       # number of cycles access was blocked (Cycle)
system.cpu.itb_walker_cache.blockedCycles::no_targets            0                       # number of cycles access was blocked (Cycle)
system.cpu.itb_walker_cache.blockedCauses::no_mshrs            0                       # number of times access was blocked (Count)
system.cpu.itb_walker_cache.blockedCauses::no_targets            0                       # number of times access was blocked (Count)
system.cpu.itb_walker_cache.avgBlocked::no_mshrs          nan                       # average number of cycles each access was blocked ((Cycle/Count))
system.cpu.itb_walker_cache.avgBlocked::no_targets          nan                       # average number of cycles each access was blocked ((Cycle/Count))
system.cpu.itb_walker_cache.replacements            0                       # number of replacements (Count)
system.cpu.itb_walker_cache.power_state.pwrStateResidencyTicks::UNDEFINED   3255614500                       # Cumulative time (in ticks) in various power states (Tick)
system.cpu.itb_walker_cache.tags.tagsInUse            0                       # Average ticks per tags in use ((Tick/Count))
system.cpu.itb_walker_cache.tags.totalRefs            0                       # Total number of references to valid blocks. (Count)
system.cpu.itb_walker_cache.tags.sampledRefs            0                       # Sample count of references to valid blocks. (Count)
system.cpu.itb_walker_cache.tags.avgRefs          nan                       # Average number of references to valid blocks. ((Count/Count))
system.cpu.itb_walker_cache.tags.warmupTick            0                       # The tick when the warmup percentage was hit. (Tick)
system.cpu.itb_walker_cache.tags.tagAccesses            0                       # Number of tag accesses (Count)
system.cpu.itb_walker_cache.tags.dataAccesses            0                       # Number of data accesses (Count)
system.cpu.itb_walker_cache.tags.power_state.pwrStateResidencyTicks::UNDEFINED   3255614500                       # Cumulative time (in ticks) in various power states (Tick)
system.cpu.lsq0.forwLoads                     1533900                       # Number of loads that had data forwarded from stores (Count)
system.cpu.lsq0.squashedLoads                  234591                       # Number of loads squashed (Count)
system.cpu.lsq0.ignoredResponses                  403                       # Number of memory responses ignored because the instruction is squashed (Count)
system.cpu.lsq0.memOrderViolation                 174                       # Number of memory ordering violations (Count)
system.cpu.lsq0.squashedStores                  88039                       # Number of stores squashed (Count)
system.cpu.lsq0.rescheduledLoads                    0                       # Number of loads that were rescheduled (Count)
system.cpu.lsq0.blockedByCache                    453                       # Number of times an access to memory failed due to the cache being blocked (Count)
system.cpu.lsq0.loadToUse::samples            3810977                       # Distribution of cycle latency between the first time a load is issued and its completion (Unspecified)
system.cpu.lsq0.loadToUse::mean              3.453881                       # Distribution of cycle latency between the first time a load is issued and its completion (Unspecified)
system.cpu.lsq0.loadToUse::stdev            10.478602                       # Distribution of cycle latency between the first time a load is issued and its completion (Unspecified)
system.cpu.lsq0.loadToUse::0-9                3789668     99.44%     99.44% # Distribution of cycle latency between the first time a load is issued and its completion (Unspecified)
system.cpu.lsq0.loadToUse::10-19                  470      0.01%     99.45% # Distribution of cycle latency between the first time a load is issued and its completion (Unspecified)
system.cpu.lsq0.loadToUse::20-29                  199      0.01%     99.46% # Distribution of cycle latency between the first time a load is issued and its completion (Unspecified)
system.cpu.lsq0.loadToUse::30-39                   82      0.00%     99.46% # Distribution of cycle latency between the first time a load is issued and its completion (Unspecified)
system.cpu.lsq0.loadToUse::40-49                  120      0.00%     99.46% # Distribution of cycle latency between the first time a load is issued and its completion (Unspecified)
system.cpu.lsq0.loadToUse::50-59                   83      0.00%     99.47% # Distribution of cycle latency between the first time a load is issued and its completion (Unspecified)
system.cpu.lsq0.loadToUse::60-69                  123      0.00%     99.47% # Distribution of cycle latency between the first time a load is issued and its completion (Unspecified)
system.cpu.lsq0.loadToUse::70-79                  778      0.02%     99.49% # Distribution of cycle latency between the first time a load is issued and its completion (Unspecified)
system.cpu.lsq0.loadToUse::80-89                 1091      0.03%     99.52% # Distribution of cycle latency between the first time a load is issued and its completion (Unspecified)
system.cpu.lsq0.loadToUse::90-99                 1173      0.03%     99.55% # Distribution of cycle latency between the first time a load is issued and its completion (Unspecified)
[...]
system.mem_ctrls.dram.perBankWrBursts::2           87                       # Per bank write bursts (Count)
system.mem_ctrls.dram.perBankWrBursts::3          124                       # Per bank write bursts (Count)
system.mem_ctrls.dram.perBankWrBursts::4          126                       # Per bank write bursts (Count)
system.mem_ctrls.dram.perBankWrBursts::5          152                       # Per bank write bursts (Count)
system.mem_ctrls.dram.perBankWrBursts::6            5                       # Per bank write bursts (Count)
system.mem_ctrls.dram.perBankWrBursts::7           15                       # Per bank write bursts (Count)
system.mem_ctrls.dram.perBankWrBursts::8           56                       # Per bank write bursts (Count)
system.mem_ctrls.dram.perBankWrBursts::9           72                       # Per bank write bursts (Count)
system.mem_ctrls.dram.perBankWrBursts::10           72                       # Per bank write bursts (Count)
system.mem_ctrls.dram.perBankWrBursts::11           66                       # Per bank write bursts (Count)
system.mem_ctrls.dram.perBankWrBursts::12          183                       # Per bank write bursts (Count)
system.mem_ctrls.dram.perBankWrBursts::13          165                       # Per bank write bursts (Count)
system.mem_ctrls.dram.perBankWrBursts::14          108                       # Per bank write bursts (Count)
system.mem_ctrls.dram.perBankWrBursts::15          194                       # Per bank write bursts (Count)
system.mem_ctrls.dram.totQLat               143151750                       # Total ticks spent queuing (Tick)
system.mem_ctrls.dram.totBusLat              53175000                       # Total ticks spent in databus transfers (Tick)
system.mem_ctrls.dram.totMemAccLat          342558000                       # Total ticks spent from burst creation until serviced by the DRAM (Tick)
system.mem_ctrls.dram.avgQLat                13460.44                       # Average queueing delay per DRAM burst ((Tick/Count))
system.mem_ctrls.dram.avgBusLat               5000.00                       # Average bus latency per DRAM burst ((Tick/Count))
system.mem_ctrls.dram.avgMemAccLat           32210.44                       # Average memory access latency per DRAM burst ((Tick/Count))
system.mem_ctrls.dram.readRowHits                7120                       # Number of row buffer hits during reads (Count)
system.mem_ctrls.dram.writeRowHits               1500                       # Number of row buffer hits during writes (Count)
system.mem_ctrls.dram.readRowHitRate            66.95                       # Row buffer hit rate for reads (Ratio)
system.mem_ctrls.dram.writeRowHitRate           78.45                       # Row buffer hit rate for writes (Ratio)
system.mem_ctrls.dram.bytesPerActivate::samples         3927                       # Bytes accessed per row activation (Byte)
system.mem_ctrls.dram.bytesPerActivate::mean   204.483830                       # Bytes accessed per row activation (Byte)
system.mem_ctrls.dram.bytesPerActivate::gmean   134.036948                       # Bytes accessed per row activation (Byte)
system.mem_ctrls.dram.bytesPerActivate::stdev   236.596460                       # Bytes accessed per row activation (Byte)
system.mem_ctrls.dram.bytesPerActivate::0-127         1768     45.02%     45.02% # Bytes accessed per row activation (Byte)
system.mem_ctrls.dram.bytesPerActivate::128-255         1181     30.07%     75.10% # Bytes accessed per row activation (Byte)
system.mem_ctrls.dram.bytesPerActivate::256-383          404     10.29%     85.38% # Bytes accessed per row activation (Byte)
system.mem_ctrls.dram.bytesPerActivate::384-511          183      4.66%     90.04% # Bytes accessed per row activation (Byte)
system.mem_ctrls.dram.bytesPerActivate::512-639           91      2.32%     92.36% # Bytes accessed per row activation (Byte)
system.mem_ctrls.dram.bytesPerActivate::640-767           57      1.45%     93.81% # Bytes accessed per row activation (Byte)
system.mem_ctrls.dram.bytesPerActivate::768-895           37      0.94%     94.75% # Bytes accessed per row activation (Byte)
system.mem_ctrls.dram.bytesPerActivate::896-1023           31      0.79%     95.54% # Bytes accessed per row activation (Byte)
system.mem_ctrls.dram.bytesPerActivate::1024-1151          175      4.46%    100.00% # Bytes accessed per row activation (Byte)
system.mem_ctrls.dram.bytesPerActivate::total         3927                       # Bytes accessed per row activation (Byte)
system.mem_ctrls.dram.bytesRead                680640                       # Total bytes read (Byte)
system.mem_ctrls.dram.bytesWritten             122368                       # Total bytes written (Byte)
system.mem_ctrls.dram.avgRdBW              209.066522                       # Average DRAM read bandwidth in MiBytes/s ((Byte/Second))
system.mem_ctrls.dram.avgWrBW               37.586760                       # Average DRAM write bandwidth in MiBytes/s ((Byte/Second))
system.mem_ctrls.dram.peakBW                 12800.00                       # Theoretical peak bandwidth in MiByte/s ((Byte/Second))
system.mem_ctrls.dram.busUtil                    1.93                       # Data bus utilization in percentage (Ratio)
system.mem_ctrls.dram.busUtilRead                1.63                       # Data bus utilization in percentage for reads (Ratio)
system.mem_ctrls.dram.busUtilWrite               0.29                       # Data bus utilization in percentage for writes (Ratio)
system.mem_ctrls.dram.pageHitRate               68.70                       # Row buffer hit rate, read and write combined (Ratio)
system.mem_ctrls.dram.power_state.pwrStateResidencyTicks::UNDEFINED   3255614500                       # Cumulative time (in ticks) in various power states (Tick)
system.mem_ctrls.dram.rank0.actEnergy        14030100                       # Energy for activate commands per rank (pJ) (Joule)
system.mem_ctrls.dram.rank0.preEnergy         7457175                       # Energy for precharge commands per rank (pJ) (Joule)
system.mem_ctrls.dram.rank0.readEnergy       42161700                       # Energy for read commands per rank (pJ) (Joule)
system.mem_ctrls.dram.rank0.writeEnergy       5199120                       # Energy for write commands per rank (pJ) (Joule)
system.mem_ctrls.dram.rank0.refreshEnergy 256919520.000000                       # Energy for refresh commands per rank (pJ) (Joule)
system.mem_ctrls.dram.rank0.actBackEnergy    484769040                       # Energy for active background per rank (pJ) (Joule)
system.mem_ctrls.dram.rank0.preBackEnergy    841929600                       # Energy for precharge background per rank (pJ) (Joule)
system.mem_ctrls.dram.rank0.actPowerDownEnergy            0                       # Energy for active power-down per rank (pJ) (Joule)
system.mem_ctrls.dram.rank0.prePowerDownEnergy            0                       # Energy for precharge power-down per rank (pJ) (Joule)
system.mem_ctrls.dram.rank0.selfRefreshEnergy            0                       # Energy for self refresh per rank (pJ) (Joule)
system.mem_ctrls.dram.rank0.totalEnergy    1652466255                       # Total energy per rank (pJ) (Joule)
system.mem_ctrls.dram.rank0.averagePower   507.574301                       # Core power per rank (mW) (Watt)
system.mem_ctrls.dram.rank0.totalIdleTime            0                       # Total Idle time Per DRAM Rank (Tick)
system.mem_ctrls.dram.rank0.pwrStateTime::IDLE   2184348250                       # Time in different power states (Tick)
system.mem_ctrls.dram.rank0.pwrStateTime::REF    108680000                       # Time in different power states (Tick)
system.mem_ctrls.dram.rank0.pwrStateTime::SREF            0                       # Time in different power states (Tick)
system.mem_ctrls.dram.rank0.pwrStateTime::PRE_PDN            0                       # Time in different power states (Tick)
system.mem_ctrls.dram.rank0.pwrStateTime::ACT    962586250                       # Time in different power states (Tick)
system.mem_ctrls.dram.rank0.pwrStateTime::ACT_PDN            0                       # Time in different power states (Tick)
system.mem_ctrls.dram.rank1.actEnergy        14008680                       # Energy for activate commands per rank (pJ) (Joule)
system.mem_ctrls.dram.rank1.preEnergy         7445790                       # Energy for precharge commands per rank (pJ) (Joule)
system.mem_ctrls.dram.rank1.readEnergy       33772200                       # Energy for read commands per rank (pJ) (Joule)
system.mem_ctrls.dram.rank1.writeEnergy       4781520                       # Energy for write commands per rank (pJ) (Joule)
system.mem_ctrls.dram.rank1.refreshEnergy 256919520.000000                       # Energy for refresh commands per rank (pJ) (Joule)
system.mem_ctrls.dram.rank1.actBackEnergy    425413230                       # Energy for active background per rank (pJ) (Joule)
system.mem_ctrls.dram.rank1.preBackEnergy    891913440                       # Energy for precharge background per rank (pJ) (Joule)
system.mem_ctrls.dram.rank1.actPowerDownEnergy            0                       # Energy for active power-down per rank (pJ) (Joule)
system.mem_ctrls.dram.rank1.prePowerDownEnergy            0                       # Energy for precharge power-down per rank (pJ) (Joule)
system.mem_ctrls.dram.rank1.selfRefreshEnergy            0                       # Energy for self refresh per rank (pJ) (Joule)
system.mem_ctrls.dram.rank1.totalEnergy    1634254380                       # Total energy per rank (pJ) (Joule)
system.mem_ctrls.dram.rank1.averagePower   501.980311                       # Core power per rank (mW) (Watt)
system.mem_ctrls.dram.rank1.totalIdleTime            0                       # Total Idle time Per DRAM Rank (Tick)
system.mem_ctrls.dram.rank1.pwrStateTime::IDLE   2315050750                       # Time in different power states (Tick)
system.mem_ctrls.dram.rank1.pwrStateTime::REF    108680000                       # Time in different power states (Tick)
system.mem_ctrls.dram.rank1.pwrStateTime::SREF            0                       # Time in different power states (Tick)
system.mem_ctrls.dram.rank1.pwrStateTime::PRE_PDN            0                       # Time in different power states (Tick)
system.mem_ctrls.dram.rank1.pwrStateTime::ACT    831883750                       # Time in different power states (Tick)
system.mem_ctrls.dram.rank1.pwrStateTime::ACT_PDN            0                       # Time in different power states (Tick)
system.mem_ctrls.power_state.pwrStateResidencyTicks::UNDEFINED   3255614500                       # Cumulative time (in ticks) in various power states (Tick)
system.membus.transDist::ReadResp                8773                       # Transaction distribution (Count)
system.membus.transDist::WritebackDirty          1650                       # Transaction distribution (Count)
system.membus.transDist::WritebackClean           366                       # Transaction distribution (Count)
system.membus.transDist::CleanEvict              7292                       # Transaction distribution (Count)
system.membus.transDist::UpgradeReq                 1                       # Transaction distribution (Count)
system.membus.transDist::ReadExReq               2039                       # Transaction distribution (Count)
system.membus.transDist::ReadExResp              2039                       # Transaction distribution (Count)
system.membus.transDist::ReadCleanReq             846                       # Transaction distribution (Count)
system.membus.transDist::ReadSharedReq           7927                       # Transaction distribution (Count)
system.membus.pktCount_system.cpu.icache.mem_side_port::system.mem_ctrls.port         2057                       # Packet count per connected requestor and responder (Count)
system.membus.pktCount_system.cpu.icache.mem_side_port::total         2057                       # Packet count per connected requestor and responder (Count)
system.membus.pktCount_system.cpu.dcache.mem_side_port::system.mem_ctrls.port        28875                       # Packet count per connected requestor and responder (Count)
system.membus.pktCount_system.cpu.dcache.mem_side_port::total        28875                       # Packet count per connected requestor and responder (Count)
system.membus.pktCount::total                   30932                       # Packet count per connected requestor and responder (Count)
system.membus.pktSize_system.cpu.icache.mem_side_port::system.mem_ctrls.port        77504                       # Cumulative packet size per connected requestor and responder (Byte)
system.membus.pktSize_system.cpu.icache.mem_side_port::total        77504                       # Cumulative packet size per connected requestor and responder (Byte)
system.membus.pktSize_system.cpu.dcache.mem_side_port::system.mem_ctrls.port       743424                       # Cumulative packet size per connected requestor and responder (Byte)
system.membus.pktSize_system.cpu.dcache.mem_side_port::total       743424                       # Cumulative packet size per connected requestor and responder (Byte)
system.membus.pktSize::total                   820928                       # Cumulative packet size per connected requestor and responder (Byte)
system.membus.snoops                                1                       # Total snoops (Count)
system.membus.snoopTraffic                         64                       # Total snoop traffic (Byte)
system.membus.snoopFanout::samples              10813                       # Request fanout histogram (Count)
system.membus.snoopFanout::mean              0.000740                       # Request fanout histogram (Count)
system.membus.snoopFanout::stdev             0.027191                       # Request fanout histogram (Count)
system.membus.snoopFanout::underflows               0      0.00%      0.00% # Request fanout histogram (Count)
system.membus.snoopFanout::0                    10805     99.93%     99.93% # Request fanout histogram (Count)
system.membus.snoopFanout::1                        8      0.07%    100.00% # Request fanout histogram (Count)
system.membus.snoopFanout::2                        0      0.00%    100.00% # Request fanout histogram (Count)
system.membus.snoopFanout::3                        0      0.00%    100.00% # Request fanout histogram (Count)
system.membus.snoopFanout::4                        0      0.00%    100.00% # Request fanout histogram (Count)
system.membus.snoopFanout::overflows                0      0.00%    100.00% # Request fanout histogram (Count)
system.membus.snoopFanout::min_value                0                       # Request fanout histogram (Count)
system.membus.snoopFanout::max_value                1                       # Request fanout histogram (Count)
system.membus.snoopFanout::total                10813                       # Request fanout histogram (Count)
system.membus.power_state.pwrStateResidencyTicks::UNDEFINED   3255614500                       # Cumulative time (in ticks) in various power states (Tick)
system.membus.reqLayer2.occupancy            30295500                       # Layer occupancy (ticks) (Tick)
system.membus.reqLayer2.utilization               0.0                       # Layer utilization (Ratio)
system.membus.respLayer1.occupancy            4488000                       # Layer occupancy (ticks) (Tick)
system.membus.respLayer1.utilization              0.0                       # Layer utilization (Ratio)
system.membus.respLayer2.occupancy           53393500                       # Layer occupancy (ticks) (Tick)
system.membus.respLayer2.utilization              0.0                       # Layer utilization (Ratio)
system.membus.snoop_filter.totRequests          20121                       # Total number of requests made to the snoop filter. (Count)
system.membus.snoop_filter.hitSingleRequests         9311                       # Number of requests hitting in the snoop filter with a single holder of the requested data. (Count)
system.membus.snoop_filter.hitMultiRequests            6                       # Number of requests hitting in the snoop filter with multiple (>1) holders of the requested data. (Count)
system.membus.snoop_filter.totSnoops                0                       # Total number of snoops made to the snoop filter. (Count)
system.membus.snoop_filter.hitSingleSnoops            0                       # Number of snoops hitting in the snoop filter with a single holder of the requested data. (Count)
system.membus.snoop_filter.hitMultiSnoops            0                       # Number of snoops hitting in the snoop filter with multiple (>1) holders of the requested data. (Count)
system.voltage_domain.voltage                       1                       # Voltage in Volts (Volt)
system.workload.inst.arm                            0                       # number of arm instructions executed (Count)
system.workload.inst.quiesce                        0                       # number of quiesce instructions executed (Count)
system.cpu.loadValPred.constant_verification_unit.constLoadHits      1730616                       # Number of loads marked constant that hit in the CVU CAM (Unspecified)
system.cpu.loadValPred.constant_verification_unit.constLoadMisses       498334                       # Number of loads marked constant that missed in the CVU CAM (Unspecified)
system.cpu.loadValPred.constant_verification_unit.numCAMReplacements        10408                       # Number of CVU CAM entries replaced (Unspecified)
system.cpu.loadValPred.constant_verification_unit.numLoadAccesses      2228950                       # Number of loads marked constant which accessed the CVU (Unspecified)
system.cpu.loadValPred.constant_verification_unit.numStoreAccesses      1597533                       # Number of store instructions which accessed the CVU (Unspecified)
system.cpu.loadValPred.constant_verification_unit.numStoreHits       488248                       # Number of stores that hit in the CVU CAM (Unspecified)
system.cpu.loadValPred.constant_verification_unit.numStoreMisses      1109285                       # Number of stores that missed in the CVU CAM (Unspecified)
system.cpu.loadValPred.correctTotal           2716811                       # Number predictions corrects for predictable verification (Unspecified)
system.cpu.loadValPred.numConstLoads          2240231                       # Number of loads classified as constant (Unspecified)
system.cpu.loadValPred.numConstLoadsCorrect      1730616                       # Number of constant loads correctly predicted (Unspecified)
system.cpu.loadValPred.numConstLoadsMispredicted       498334                       # Number of constant loads incorrectly predicted (Unspecified)
system.cpu.loadValPred.numConstValOne           18889                       # Number of constant loads with value 1 (Unspecified)
system.cpu.loadValPred.numConstValZero          67705                       # Number of constant loads with value 0 (Unspecified)
system.cpu.loadValPred.numPredictableLoads       506409                       # Number of loads classified as predictable (Unspecified)
system.cpu.loadValPred.numPredictableLoadsCorrect       498420                       # Number of loads correctly classified as predictable (Unspecified)
system.cpu.loadValPred.numPredictableLoadsIncorrect         5219                       # Number of loads incorrectly classified as predictable (Unspecified)
system.cpu.loadValPred.totalLoads             3953533                       # Total loads processed by the Load value predictor (Unspecified)
system.cpu.loadValPred.valueLocalityNumerator      2743983                       # Number predictions corrects (Unspecified)

---------- End Simulation Statistics   ----------
