
---------- Begin Simulation Statistics ----------
simSeconds                                   0.000973                       # Number of seconds simulated (Second)
simTicks                                    972981500                       # Number of ticks simulated (Tick)
finalTick                                   972981500                       # Number of ticks from beginning of simulation (restored from checkpoints and never reset) (Tick)
simFreq                                  1000000000000                       # The number of ticks per simulated second ((Tick/Second))
hostSeconds                                     12.43                       # Real time elapsed on the host (Second)
hostTickRate                                 78278303                       # The number of ticks simulated per host second (ticks/s) ((Tick/Second))
hostMemory                                    8722508                       # Number of bytes of host memory used (Byte)
simInsts                                      1648301                       # Number of instructions simulated (Count)
simOps                                        2549395                       # Number of ops (including micro ops) simulated (Count)
hostInstRate                                   132607                       # Simulator instruction rate (inst/s) ((Count/Second))
hostOpRate                                     204142                       # Simulator op (including micro ops) rate (op/s) ((Count/Second))
system.clk_domain.clock                          1000                       # Clock period in ticks (Tick)
system.cpu.numCycles                          1945964                       # Number of cpu cycles simulated (Cycle)
system.cpu.numWorkItemsStarted                      0                       # Number of work items this cpu started (Count)
system.cpu.numWorkItemsCompleted                    0                       # Number of work items this cpu completed (Count)
system.cpu.instsAdded                         3339405                       # Number of instructions added to the IQ (excludes non-spec) (Count)
system.cpu.nonSpecInstsAdded                      101                       # Number of non-speculative instructions added to the IQ (Count)
system.cpu.instsIssued                        3010514                       # Number of instructions issued (Count)
system.cpu.squashedInstsIssued                   1719                       # Number of squashed instructions issued (Count)
system.cpu.squashedInstsExamined               790019                       # Number of squashed instructions iterated over during squash; mainly for profiling (Count)
system.cpu.squashedOperandsExamined           2026157                       # Number of squashed operands that are examined and possibly removed from graph (Count)
system.cpu.squashedNonSpecRemoved                  28                       # Number of squashed non-spec instructions that were removed (Count)
system.cpu.numIssuedDist::samples             1901860                       # Number of insts issued each cycle (Count)
system.cpu.numIssuedDist::mean               1.582931                       # Number of insts issued each cycle (Count)
system.cpu.numIssuedDist::stdev              2.134653                       # Number of insts issued each cycle (Count)
system.cpu.numIssuedDist::underflows                0      0.00%      0.00% # Number of insts issued each cycle (Count)
system.cpu.numIssuedDist::0                   1031045     54.21%     54.21% # Number of insts issued each cycle (Count)
system.cpu.numIssuedDist::1                    155319      8.17%     62.38% # Number of insts issued each cycle (Count)
system.cpu.numIssuedDist::2                    150897      7.93%     70.31% # Number of insts issued each cycle (Count)
system.cpu.numIssuedDist::3                    161862      8.51%     78.82% # Number of insts issued each cycle (Count)
system.cpu.numIssuedDist::4                    165669      8.71%     87.53% # Number of insts issued each cycle (Count)
system.cpu.numIssuedDist::5                    106020      5.57%     93.11% # Number of insts issued each cycle (Count)
system.cpu.numIssuedDist::6                     63976      3.36%     96.47% # Number of insts issued each cycle (Count)
system.cpu.numIssuedDist::7                     45393      2.39%     98.86% # Number of insts issued each cycle (Count)
system.cpu.numIssuedDist::8                     21679      1.14%    100.00% # Number of insts issued each cycle (Count)
system.cpu.numIssuedDist::overflows                 0      0.00%    100.00% # Number of insts issued each cycle (Count)
system.cpu.numIssuedDist::min_value                 0                       # Number of insts issued each cycle (Count)
system.cpu.numIssuedDist::max_value                 8                       # Number of insts issued each cycle (Count)
system.cpu.numIssuedDist::total               1901860                       # Number of insts issued each cycle (Count)
system.cpu.statFuBusy::No_OpClass                   0      0.00%      0.00% # attempts to use FU when none available (Count)
system.cpu.statFuBusy::IntAlu                   25390     67.07%     67.07% # attempts to use FU when none available (Count)
system.cpu.statFuBusy::IntMult                      0      0.00%     67.07% # attempts to use FU when none available (Count)
system.cpu.statFuBusy::IntDiv                       0      0.00%     67.07% # attempts to use FU when none available (Count)
system.cpu.statFuBusy::FloatAdd                     0      0.00%     67.07% # attempts to use FU when none available (Count)
system.cpu.statFuBusy::FloatCmp                     0      0.00%     67.07% # attempts to use FU when none available (Count)
system.cpu.statFuBusy::FloatCvt                     0      0.00%     67.07% # attempts to use FU when none available (Count)
system.cpu.statFuBusy::FloatMult                    0      0.00%     67.07% # attempts to use FU when none available (Count)
system.cpu.statFuBusy::FloatMultAcc                 0      0.00%     67.07% # attempts to use FU when none available (Count)
system.cpu.statFuBusy::FloatDiv                     0      0.00%     67.07% # attempts to use FU when none available (Count)
system.cpu.statFuBusy::FloatMisc                    0      0.00%     67.07% # attempts to use FU when none available (Count)
system.cpu.statFuBusy::FloatSqrt                    0      0.00%     67.07% # attempts to use FU when none available (Count)
system.cpu.statFuBusy::SimdAdd                      0      0.00%     67.07% # attempts to use FU when none available (Count)
system.cpu.statFuBusy::SimdAddAcc                   0      0.00%     67.07% # attempts to use FU when none available (Count)
system.cpu.statFuBusy::SimdAlu                      0      0.00%     67.07% # attempts to use FU when none available (Count)
system.cpu.statFuBusy::SimdCmp                      0      0.00%     67.07% # attempts to use FU when none available (Count)
system.cpu.statFuBusy::SimdCvt                      0      0.00%     67.07% # attempts to use FU when none available (Count)
system.cpu.statFuBusy::SimdMisc                     0      0.00%     67.07% # attempts to use FU when none available (Count)
system.cpu.statFuBusy::SimdMult                     0      0.00%     67.07% # attempts to use FU when none available (Count)
system.cpu.statFuBusy::SimdMultAcc                  0      0.00%     67.07% # attempts to use FU when none available (Count)
system.cpu.statFuBusy::SimdShift                    0      0.00%     67.07% # attempts to use FU when none available (Count)
system.cpu.statFuBusy::SimdShiftAcc                 0      0.00%     67.07% # attempts to use FU when none available (Count)
system.cpu.statFuBusy::SimdDiv                      0      0.00%     67.07% # attempts to use FU when none available (Count)
system.cpu.statFuBusy::SimdSqrt                     0      0.00%     67.07% # attempts to use FU when none available (Count)
system.cpu.statFuBusy::SimdFloatAdd                 0      0.00%     67.07% # attempts to use FU when none available (Count)
system.cpu.statFuBusy::SimdFloatAlu                 0      0.00%     67.07% # attempts to use FU when none available (Count)
system.cpu.statFuBusy::SimdFloatCmp                 0      0.00%     67.07% # attempts to use FU when none available (Count)
system.cpu.statFuBusy::SimdFloatCvt                 0      0.00%     67.07% # attempts to use FU when none available (Count)
system.cpu.statFuBusy::SimdFloatDiv                 0      0.00%     67.07% # attempts to use FU when none available (Count)
system.cpu.statFuBusy::SimdFloatMisc                0      0.00%     67.07% # attempts to use FU when none available (Count)
system.cpu.statFuBusy::SimdFloatMult                0      0.00%     67.07% # attempts to use FU when none available (Count)
system.cpu.statFuBusy::SimdFloatMultAcc             0      0.00%     67.07% # attempts to use FU when none available (Count)
system.cpu.statFuBusy::SimdFloatSqrt                0      0.00%     67.07% # attempts to use FU when none available (Count)
system.cpu.statFuBusy::SimdReduceAdd                0      0.00%     67.07% # attempts to use FU when none available (Count)
system.cpu.statFuBusy::SimdReduceAlu                0      0.00%     67.07% # attempts to use FU when none available (Count)
system.cpu.statFuBusy::SimdReduceCmp                0      0.00%     67.07% # attempts to use FU when none available (Count)
system.cpu.statFuBusy::SimdFloatReduceAdd            0      0.00%     67.07% # attempts to use FU when none available (Count)
system.cpu.statFuBusy::SimdFloatReduceCmp            0      0.00%     67.07% # attempts to use FU when none available (Count)
system.cpu.statFuBusy::SimdAes                      0      0.00%     67.07% # attempts to use FU when none available (Count)
system.cpu.statFuBusy::SimdAesMix                   0      0.00%     67.07% # attempts to use FU when none available (Count)
system.cpu.statFuBusy::SimdSha1Hash                 0      0.00%     67.07% # attempts to use FU when none available (Count)
system.cpu.statFuBusy::SimdSha1Hash2                0      0.00%     67.07% # attempts to use FU when none available (Count)
system.cpu.statFuBusy::SimdSha256Hash               0      0.00%     67.07% # attempts to use FU when none available (Count)
system.cpu.statFuBusy::SimdSha256Hash2              0      0.00%     67.07% # attempts to use FU when none available (Count)
system.cpu.statFuBusy::SimdShaSigma2                0      0.00%     67.07% # attempts to use FU when none available (Count)
system.cpu.statFuBusy::SimdShaSigma3                0      0.00%     67.07% # attempts to use FU when none available (Count)
system.cpu.statFuBusy::SimdPredAlu                  0      0.00%     67.07% # attempts to use FU when none available (Count)
system.cpu.statFuBusy::MemRead                   5547     14.65%     81.73% # attempts to use FU when none available (Count)
system.cpu.statFuBusy::MemWrite                  6884     18.19%     99.91% # attempts to use FU when none available (Count)
system.cpu.statFuBusy::FloatMemRead                32      0.08%     99.99% # attempts to use FU when none available (Count)
system.cpu.statFuBusy::FloatMemWrite                2      0.01%    100.00% # attempts to use FU when none available (Count)
system.cpu.statFuBusy::IprAccess                    0      0.00%    100.00% # attempts to use FU when none available (Count)
system.cpu.statFuBusy::InstPrefetch                 0      0.00%    100.00% # attempts to use FU when none available (Count)
system.cpu.statIssuedInstType_0::No_OpClass         7683      0.26%      0.26% # Number of instructions issued per FU type, per thread (Count)
system.cpu.statIssuedInstType_0::IntAlu       2321870     77.13%     77.38% # Number of instructions issued per FU type, per thread (Count)
system.cpu.statIssuedInstType_0::IntMult          201      0.01%     77.39% # Number of instructions issued per FU type, per thread (Count)
system.cpu.statIssuedInstType_0::IntDiv         24811      0.82%     78.21% # Number of instructions issued per FU type, per thread (Count)
system.cpu.statIssuedInstType_0::FloatAdd           66      0.00%     78.21% # Number of instructions issued per FU type, per thread (Count)
system.cpu.statIssuedInstType_0::FloatCmp            0      0.00%     78.21% # Number of instructions issued per FU type, per thread (Count)
system.cpu.statIssuedInstType_0::FloatCvt          128      0.00%     78.22% # Number of instructions issued per FU type, per thread (Count)
system.cpu.statIssuedInstType_0::FloatMult            0      0.00%     78.22% # Number of instructions issued per FU type, per thread (Count)
system.cpu.statIssuedInstType_0::FloatMultAcc            0      0.00%     78.22% # Number of instructions issued per FU type, per thread (Count)
system.cpu.statIssuedInstType_0::FloatDiv            0      0.00%     78.22% # Number of instructions issued per FU type, per thread (Count)
system.cpu.statIssuedInstType_0::FloatMisc            0      0.00%     78.22% # Number of instructions issued per FU type, per thread (Count)
system.cpu.statIssuedInstType_0::FloatSqrt            0      0.00%     78.22% # Number of instructions issued per FU type, per thread (Count)
system.cpu.statIssuedInstType_0::SimdAdd            0      0.00%     78.22% # Number of instructions issued per FU type, per thread (Count)
system.cpu.statIssuedInstType_0::SimdAddAcc            0      0.00%     78.22% # Number of instructions issued per FU type, per thread (Count)
system.cpu.statIssuedInstType_0::SimdAlu            2      0.00%     78.22% # Number of instructions issued per FU type, per thread (Count)
system.cpu.statIssuedInstType_0::SimdCmp            0      0.00%     78.22% # Number of instructions issued per FU type, per thread (Count)
system.cpu.statIssuedInstType_0::SimdCvt           16      0.00%     78.22% # Number of instructions issued per FU type, per thread (Count)
system.cpu.statIssuedInstType_0::SimdMisc           23      0.00%     78.22% # Number of instructions issued per FU type, per thread (Count)
system.cpu.statIssuedInstType_0::SimdMult            0      0.00%     78.22% # Number of instructions issued per FU type, per thread (Count)
system.cpu.statIssuedInstType_0::SimdMultAcc            0      0.00%     78.22% # Number of instructions issued per FU type, per thread (Count)
system.cpu.statIssuedInstType_0::SimdShift            0      0.00%     78.22% # Number of instructions issued per FU type, per thread (Count)
system.cpu.statIssuedInstType_0::SimdShiftAcc            0      0.00%     78.22% # Number of instructions issued per FU type, per thread (Count)
system.cpu.statIssuedInstType_0::SimdDiv            0      0.00%     78.22% # Number of instructions issued per FU type, per thread (Count)
system.cpu.statIssuedInstType_0::SimdSqrt            0      0.00%     78.22% # Number of instructions issued per FU type, per thread (Count)
system.cpu.statIssuedInstType_0::SimdFloatAdd            0      0.00%     78.22% # Number of instructions issued per FU type, per thread (Count)
system.cpu.statIssuedInstType_0::SimdFloatAlu            0      0.00%     78.22% # Number of instructions issued per FU type, per thread (Count)
system.cpu.statIssuedInstType_0::SimdFloatCmp            0      0.00%     78.22% # Number of instructions issued per FU type, per thread (Count)
system.cpu.statIssuedInstType_0::SimdFloatCvt            0      0.00%     78.22% # Number of instructions issued per FU type, per thread (Count)
system.cpu.statIssuedInstType_0::SimdFloatDiv            0      0.00%     78.22% # Number of instructions issued per FU type, per thread (Count)
system.cpu.statIssuedInstType_0::SimdFloatMisc            0      0.00%     78.22% # Number of instructions issued per FU type, per thread (Count)
system.cpu.statIssuedInstType_0::SimdFloatMult            0      0.00%     78.22% # Number of instructions issued per FU type, per thread (Count)
system.cpu.statIssuedInstType_0::SimdFloatMultAcc            0      0.00%     78.22% # Number of instructions issued per FU type, per thread (Count)
system.cpu.statIssuedInstType_0::SimdFloatSqrt            0      0.00%     78.22% # Number of instructions issued per FU type, per thread (Count)
system.cpu.statIssuedInstType_0::SimdReduceAdd            0      0.00%     78.22% # Number of instructions issued per FU type, per thread (Count)
system.cpu.statIssuedInstType_0::SimdReduceAlu            0      0.00%     78.22% # Number of instructions issued per FU type, per thread (Count)
system.cpu.statIssuedInstType_0::SimdReduceCmp            0      0.00%     78.22% # Number of instructions issued per FU type, per thread (Count)
system.cpu.statIssuedInstType_0::SimdFloatReduceAdd            0      0.00%     78.22% # Number of instructions issued per FU type, per thread (Count)
system.cpu.statIssuedInstType_0::SimdFloatReduceCmp            0      0.00%     78.22% # Number of instructions issued per FU type, per thread (Count)
system.cpu.statIssuedInstType_0::SimdAes            0      0.00%     78.22% # Number of instructions issued per FU type, per thread (Count)
system.cpu.statIssuedInstType_0::SimdAesMix            0      0.00%     78.22% # Number of instructions issued per FU type, per thread (Count)
system.cpu.statIssuedInstType_0::SimdSha1Hash            0      0.00%     78.22% # Number of instructions issued per FU type, per thread (Count)
system.cpu.statIssuedInstType_0::SimdSha1Hash2            0      0.00%     78.22% # Number of instructions issued per FU type, per thread (Count)
system.cpu.statIssuedInstType_0::SimdSha256Hash            0      0.00%     78.22% # Number of instructions issued per FU type, per thread (Count)
system.cpu.statIssuedInstType_0::SimdSha256Hash2            0      0.00%     78.22% # Number of instructions issued per FU type, per thread (Count)
system.cpu.statIssuedInstType_0::SimdShaSigma2            0      0.00%     78.22% # Number of instructions issued per FU type, per thread (Count)
system.cpu.statIssuedInstType_0::SimdShaSigma3            0      0.00%     78.22% # Number of instructions issued per FU type, per thread (Count)
system.cpu.statIssuedInstType_0::SimdPredAlu            0      0.00%     78.22% # Number of instructions issued per FU type, per thread (Count)
system.cpu.statIssuedInstType_0::MemRead       488216     16.22%     94.44% # Number of instructions issued per FU type, per thread (Count)
system.cpu.statIssuedInstType_0::MemWrite       166975      5.55%     99.98% # Number of instructions issued per FU type, per thread (Count)
system.cpu.statIssuedInstType_0::FloatMemRead          266      0.01%     99.99% # Number of instructions issued per FU type, per thread (Count)
system.cpu.statIssuedInstType_0::FloatMemWrite          257      0.01%    100.00% # Number of instructions issued per FU type, per thread (Count)
system.cpu.statIssuedInstType_0::IprAccess            0      0.00%    100.00% # Number of instructions issued per FU type, per thread (Count)
system.cpu.statIssuedInstType_0::InstPrefetch            0      0.00%    100.00% # Number of instructions issued per FU type, per thread (Count)
system.cpu.statIssuedInstType_0::total        3010514                       # Number of instructions issued per FU type, per thread (Count)
system.cpu.issueRate                         1.547055                       # Inst issue rate ((Count/Cycle))
system.cpu.fuBusy                               37855                       # FU busy when requested (Count)
system.cpu.fuBusyRate                        0.012574                       # FU busy rate (busy events/executed inst) ((Count/Count))
system.cpu.intInstQueueReads                  7960894                       # Number of integer instruction queue reads (Count)
system.cpu.intInstQueueWrites                 4128821                       # Number of integer instruction queue writes (Count)
system.cpu.intInstQueueWakeupAccesses         2970153                       # Number of integer instruction queue wakeup accesses (Count)
system.cpu.fpInstQueueReads                      1568                       # Number of floating instruction queue reads (Count)
system.cpu.fpInstQueueWrites                      780                       # Number of floating instruction queue writes (Count)
system.cpu.fpInstQueueWakeupAccesses              766                       # Number of floating instruction queue wakeup accesses (Count)
system.cpu.vecInstQueueReads                        0                       # Number of vector instruction queue reads (Count)
system.cpu.vecInstQueueWrites                       0                       # Number of vector instruction queue writes (Count)
system.cpu.vecInstQueueWakeupAccesses               0                       # Number of vector instruction queue wakeup accesses (Count)
system.cpu.intAluAccesses                     3039885                       # Number of integer alu accesses (Count)
system.cpu.fpAluAccesses                          801                       # Number of floating point alu accesses (Count)
system.cpu.vecAluAccesses                           0                       # Number of vector alu accesses (Count)
system.cpu.numInsts                           2988311                       # Number of executed instructions (Count)
system.cpu.numLoadInsts                        483670                       # Number of load instructions executed (Count)
system.cpu.numSquashedInsts                     22203                       # Number of squashed instructions skipped in execute (Count)
system.cpu.numSwp                                   0                       # Number of swp insts executed (Count)
system.cpu.numNop                                   0                       # Number of nop insts executed (Count)
system.cpu.numRefs                             648414                       # Number of memory reference insts executed (Count)
system.cpu.numBranches                         243926                       # Number of branches executed (Count)
system.cpu.numStoreInsts                       164744                       # Number of stores executed (Count)
system.cpu.numRate                           1.535646                       # Inst execution rate ((Count/Cycle))
system.cpu.timesIdled                             528                       # Number of times that the entire CPU went into an idle state and unscheduled itself (Count)
system.cpu.idleCycles                           44104                       # Total number of cycles that the CPU has spent unscheduled due to idling (Cycle)
system.cpu.committedInsts                     1648301                       # Number of Instructions Simulated (Count)
system.cpu.committedOps                       2549395                       # Number of Ops (including micro ops) Simulated (Count)
system.cpu.cpi                               1.180588                       # CPI: Cycles Per Instruction ((Cycle/Count))
system.cpu.totalCpi                          1.180588                       # CPI: Total CPI of All Threads ((Cycle/Count))
system.cpu.ipc                               0.847036                       # IPC: Instructions Per Cycle ((Count/Cycle))
system.cpu.totalIpc                          0.847036                       # IPC: Total IPC of All Threads ((Count/Cycle))
system.cpu.intRegfileReads                    4682814                       # Number of integer regfile reads (Count)
system.cpu.intRegfileWrites                   2399749                       # Number of integer regfile writes (Count)
system.cpu.fpRegfileReads                         751                       # Number of floating regfile reads (Count)
system.cpu.fpRegfileWrites                        365                       # Number of floating regfile writes (Count)
system.cpu.ccRegfileReads                     1484001                       # number of cc regfile reads (Count)
system.cpu.ccRegfileWrites                    1418441                       # number of cc regfile writes (Count)
system.cpu.miscRegfileReads                   1181138                       # number of misc regfile reads (Count)
system.cpu.miscRegfileWrites                       72                       # number of misc regfile writes (Count)
system.cpu.MemDepUnit__0.insertedLoads         529652                       # Number of loads inserted to the mem dependence unit. (Count)
system.cpu.MemDepUnit__0.insertedStores        176981                       # Number of stores inserted to the mem dependence unit. (Count)
system.cpu.MemDepUnit__0.conflictingLoads        24711                       # Number of conflicting loads. (Count)
system.cpu.MemDepUnit__0.conflictingStores         8023                       # Number of conflicting stores. (Count)
system.cpu.MemDepUnit__1.insertedLoads              0                       # Number of loads inserted to the mem dependence unit. (Count)
system.cpu.MemDepUnit__1.insertedStores             0                       # Number of stores inserted to the mem dependence unit. (Count)
system.cpu.MemDepUnit__1.conflictingLoads            0                       # Number of conflicting loads. (Count)
system.cpu.MemDepUnit__1.conflictingStores            0                       # Number of conflicting stores. (Count)
system.cpu.MemDepUnit__2.insertedLoads              0                       # Number of loads inserted to the mem dependence unit. (Count)
system.cpu.MemDepUnit__2.insertedStores             0                       # Number of stores inserted to the mem dependence unit. (Count)
system.cpu.MemDepUnit__2.conflictingLoads            0                       # Number of conflicting loads. (Count)
system.cpu.MemDepUnit__2.conflictingStores            0                       # Number of conflicting stores. (Count)
system.cpu.MemDepUnit__3.insertedLoads              0                       # Number of loads inserted to the mem dependence unit. (Count)
system.cpu.MemDepUnit__3.insertedStores             0                       # Number of stores inserted to the mem dependence unit. (Count)
system.cpu.MemDepUnit__3.conflictingLoads            0                       # Number of conflicting loads. (Count)
system.cpu.MemDepUnit__3.conflictingStores            0                       # Number of conflicting stores. (Count)
system.cpu.branchPred.lookups                  355158                       # Number of BP lookups (Count)
system.cpu.branchPred.condPredicted            316042                       # Number of conditional branches predicted (Count)
system.cpu.branchPred.condIncorrect             12285                       # Number of conditional branches incorrect (Count)
system.cpu.branchPred.BTBLookups               185998                       # Number of BTB lookups (Count)
system.cpu.branchPred.BTBHits                  180489                       # Number of BTB hits (Count)
system.cpu.branchPred.BTBHitRatio            0.970381                       # BTB Hit Ratio (Ratio)
system.cpu.branchPred.RASUsed                   14238                       # Number of times the RAS was used to get a target. (Count)
system.cpu.branchPred.RASIncorrect                  1                       # Number of incorrect RAS predictions. (Count)
system.cpu.branchPred.indirectLookups            3852                       # Number of indirect predictor lookups. (Count)
system.cpu.branchPred.indirectHits               2681                       # Number of indirect target hits. (Count)
system.cpu.branchPred.indirectMisses             1171                       # Number of indirect misses. (Count)
system.cpu.branchPred.indirectMispredicted          255                       # Number of mispredicted indirect branches. (Count)
system.cpu.commit.commitSquashedInsts          785583                       # The number of squashed insts skipped by commit (Count)
system.cpu.commit.commitNonSpecStalls              73                       # The number of times commit has been forced to stall to communicate backwards (Count)
system.cpu.commit.branchMispredicts             11919                       # The number of times a branch was mispredicted (Count)
system.cpu.commit.numCommittedDist::samples      1793990                       # Number of insts commited each cycle (Count)
system.cpu.commit.numCommittedDist::mean     1.421075                       # Number of insts commited each cycle (Count)
system.cpu.commit.numCommittedDist::stdev     2.354826                       # Number of insts commited each cycle (Count)
system.cpu.commit.numCommittedDist::underflows            0      0.00%      0.00% # Number of insts commited each cycle (Count)
system.cpu.commit.numCommittedDist::0         1072344     59.77%     59.77% # Number of insts commited each cycle (Count)
system.cpu.commit.numCommittedDist::1          214244     11.94%     71.72% # Number of insts commited each cycle (Count)
system.cpu.commit.numCommittedDist::2           75714      4.22%     75.94% # Number of insts commited each cycle (Count)
system.cpu.commit.numCommittedDist::3          188751     10.52%     86.46% # Number of insts commited each cycle (Count)
system.cpu.commit.numCommittedDist::4           24744      1.38%     87.84% # Number of insts commited each cycle (Count)
system.cpu.commit.numCommittedDist::5           61034      3.40%     91.24% # Number of insts commited each cycle (Count)
system.cpu.commit.numCommittedDist::6           17176      0.96%     92.20% # Number of insts commited each cycle (Count)
system.cpu.commit.numCommittedDist::7            9596      0.53%     92.73% # Number of insts commited each cycle (Count)
system.cpu.commit.numCommittedDist::8          130387      7.27%    100.00% # Number of insts commited each cycle (Count)
system.cpu.commit.numCommittedDist::overflows            0      0.00%    100.00% # Number of insts commited each cycle (Count)
system.cpu.commit.numCommittedDist::min_value            0                       # Number of insts commited each cycle (Count)
system.cpu.commit.numCommittedDist::max_value            8                       # Number of insts commited each cycle (Count)
system.cpu.commit.numCommittedDist::total      1793990                       # Number of insts commited each cycle (Count)
system.cpu.commit.instsCommitted              1648301                       # Number of instructions committed (Count)
system.cpu.commit.opsCommitted                2549395                       # Number of ops (including micro ops) committed (Count)
system.cpu.commit.memRefs                      548198                       # Number of memory references committed (Count)
system.cpu.commit.loads                        409480                       # Number of loads committed (Count)
system.cpu.commit.amos                              0                       # Number of atomic instructions committed (Count)
system.cpu.commit.membars                           0                       # Number of memory barriers committed (Count)
system.cpu.commit.branches                     223636                       # Number of branches committed (Count)
system.cpu.commit.vectorInstructions                0                       # Number of committed Vector instructions. (Count)
system.cpu.commit.floating                        754                       # Number of committed floating point instructions. (Count)
system.cpu.commit.integer                     2533184                       # Number of committed integer instructions. (Count)
system.cpu.commit.functionCalls                  6663                       # Number of function calls committed. (Count)
system.cpu.commit.committedInstType_0::No_OpClass         6307      0.25%      0.25% # Class of committed instruction (Count)
system.cpu.commit.committedInstType_0::IntAlu      1971580     77.34%     77.58% # Class of committed instruction (Count)
system.cpu.commit.committedInstType_0::IntMult          163      0.01%     77.59% # Class of committed instruction (Count)
system.cpu.commit.committedInstType_0::IntDiv        22920      0.90%     78.49% # Class of committed instruction (Count)
system.cpu.commit.committedInstType_0::FloatAdd           66      0.00%     78.49% # Class of committed instruction (Count)
system.cpu.commit.committedInstType_0::FloatCmp            0      0.00%     78.49% # Class of committed instruction (Count)
system.cpu.commit.committedInstType_0::FloatCvt          128      0.01%     78.50% # Class of committed instruction (Count)
system.cpu.commit.committedInstType_0::FloatMult            0      0.00%     78.50% # Class of committed instruction (Count)
system.cpu.commit.committedInstType_0::FloatMultAcc            0      0.00%     78.50% # Class of committed instruction (Count)
system.cpu.commit.committedInstType_0::FloatDiv            0      0.00%     78.50% # Class of committed instruction (Count)
system.cpu.commit.committedInstType_0::FloatMisc            0      0.00%     78.50% # Class of committed instruction (Count)
system.cpu.commit.committedInstType_0::FloatSqrt            0      0.00%     78.50% # Class of committed instruction (Count)
system.cpu.commit.committedInstType_0::SimdAdd            0      0.00%     78.50% # Class of committed instruction (Count)
system.cpu.commit.committedInstType_0::SimdAddAcc            0      0.00%     78.50% # Class of committed instruction (Count)
system.cpu.commit.committedInstType_0::SimdAlu            2      0.00%     78.50% # Class of committed instruction (Count)
system.cpu.commit.committedInstType_0::SimdCmp            0      0.00%     78.50% # Class of committed instruction (Count)
system.cpu.commit.committedInstType_0::SimdCvt           12      0.00%     78.50% # Class of committed instruction (Count)
system.cpu.commit.committedInstType_0::SimdMisc           19      0.00%     78.50% # Class of committed instruction (Count)
system.cpu.commit.committedInstType_0::SimdMult            0      0.00%     78.50% # Class of committed instruction (Count)
system.cpu.commit.committedInstType_0::SimdMultAcc            0      0.00%     78.50% # Class of committed instruction (Count)
system.cpu.commit.committedInstType_0::SimdShift            0      0.00%     78.50% # Class of committed instruction (Count)
system.cpu.commit.committedInstType_0::SimdShiftAcc            0      0.00%     78.50% # Class of committed instruction (Count)
system.cpu.commit.committedInstType_0::SimdDiv            0      0.00%     78.50% # Class of committed instruction (Count)
system.cpu.commit.committedInstType_0::SimdSqrt            0      0.00%     78.50% # Class of committed instruction (Count)
system.cpu.commit.committedInstType_0::SimdFloatAdd            0      0.00%     78.50% # Class of committed instruction (Count)
system.cpu.commit.committedInstType_0::SimdFloatAlu            0      0.00%     78.50% # Class of committed instruction (Count)
system.cpu.commit.committedInstType_0::SimdFloatCmp            0      0.00%     78.50% # Class of committed instruction (Count)
system.cpu.commit.committedInstType_0::SimdFloatCvt            0      0.00%     78.50% # Class of committed instruction (Count)
system.cpu.commit.committedInstType_0::SimdFloatDiv            0      0.00%     78.50% # Class of committed instruction (Count)
system.cpu.commit.committedInstType_0::SimdFloatMisc            0      0.00%     78.50% # Class of committed instruction (Count)
system.cpu.commit.committedInstType_0::SimdFloatMult            0      0.00%     78.50% # Class of committed instruction (Count)
system.cpu.commit.committedInstType_0::SimdFloatMultAcc            0      0.00%     78.50% # Class of committed instruction (Count)
system.cpu.commit.committedInstType_0::SimdFloatSqrt            0      0.00%     78.50% # Class of committed instruction (Count)
system.cpu.commit.committedInstType_0::SimdReduceAdd            0      0.00%     78.50% # Class of committed instruction (Count)
system.cpu.commit.committedInstType_0::SimdReduceAlu            0      0.00%     78.50% # Class of committed instruction (Count)
system.cpu.commit.committedInstType_0::SimdReduceCmp            0      0.00%     78.50% # Class of committed instruction (Count)
system.cpu.commit.committedInstType_0::SimdFloatReduceAdd            0      0.00%     78.50% # Class of committed instruction (Count)
system.cpu.commit.committedInstType_0::SimdFloatReduceCmp            0      0.00%     78.50% # Class of committed instruction (Count)
system.cpu.commit.committedInstType_0::SimdAes            0      0.00%     78.50% # Class of committed instruction (Count)
system.cpu.commit.committedInstType_0::SimdAesMix            0      0.00%     78.50% # Class of committed instruction (Count)
system.cpu.commit.committedInstType_0::SimdSha1Hash            0      0.00%     78.50% # Class of committed instruction (Count)
system.cpu.commit.committedInstType_0::SimdSha1Hash2            0      0.00%     78.50% # Class of committed instruction (Count)
system.cpu.commit.committedInstType_0::SimdSha256Hash            0      0.00%     78.50% # Class of committed instruction (Count)
system.cpu.commit.committedInstType_0::SimdSha256Hash2            0      0.00%     78.50% # Class of committed instruction (Count)
system.cpu.commit.committedInstType_0::SimdShaSigma2            0      0.00%     78.50% # Class of committed instruction (Count)
system.cpu.commit.committedInstType_0::SimdShaSigma3            0      0.00%     78.50% # Class of committed instruction (Count)
system.cpu.commit.committedInstType_0::SimdPredAlu            0      0.00%     78.50% # Class of committed instruction (Count)
system.cpu.commit.committedInstType_0::MemRead       409217     16.05%     94.55% # Class of committed instruction (Count)
system.cpu.commit.committedInstType_0::MemWrite       138461      5.43%     99.98% # Class of committed instruction (Count)
system.cpu.commit.committedInstType_0::FloatMemRead          263      0.01%     99.99% # Class of committed instruction (Count)
system.cpu.commit.committedInstType_0::FloatMemWrite          257      0.01%    100.00% # Class of committed instruction (Count)
system.cpu.commit.committedInstType_0::IprAccess            0      0.00%    100.00% # Class of committed instruction (Count)
system.cpu.commit.committedInstType_0::InstPrefetch            0      0.00%    100.00% # Class of committed instruction (Count)
system.cpu.commit.committedInstType_0::total      2549395                       # Class of committed instruction (Count)
system.cpu.commit.commitEligibleSamples        130387                       # number cycles where commit BW limit reached (Cycle)
system.cpu.dcache.demandHits::cpu.data         491025                       # number of demand (read+write) hits (Count)
system.cpu.dcache.demandHits::total            491025                       # number of demand (read+write) hits (Count)
system.cpu.dcache.overallHits::cpu.data        491025                       # number of overall hits (Count)
system.cpu.dcache.overallHits::total           491025                       # number of overall hits (Count)
system.cpu.dcache.demandMisses::cpu.data        30754                       # number of demand (read+write) misses (Count)
system.cpu.dcache.demandMisses::total           30754                       # number of demand (read+write) misses (Count)
system.cpu.dcache.overallMisses::cpu.data        30754                       # number of overall misses (Count)
system.cpu.dcache.overallMisses::total          30754                       # number of overall misses (Count)
system.cpu.dcache.demandMissLatency::cpu.data   1900567974                       # number of demand (read+write) miss ticks (Tick)
system.cpu.dcache.demandMissLatency::total   1900567974                       # number of demand (read+write) miss ticks (Tick)
system.cpu.dcache.overallMissLatency::cpu.data   1900567974                       # number of overall miss ticks (Tick)
system.cpu.dcache.overallMissLatency::total   1900567974                       # number of overall miss ticks (Tick)
system.cpu.dcache.demandAccesses::cpu.data       521779                       # number of demand (read+write) accesses (Count)
system.cpu.dcache.demandAccesses::total        521779                       # number of demand (read+write) accesses (Count)
system.cpu.dcache.overallAccesses::cpu.data       521779                       # number of overall (read+write) accesses (Count)
system.cpu.dcache.overallAccesses::total       521779                       # number of overall (read+write) accesses (Count)
system.cpu.dcache.demandMissRate::cpu.data     0.058941                       # miss rate for demand accesses (Ratio)
system.cpu.dcache.demandMissRate::total      0.058941                       # miss rate for demand accesses (Ratio)
system.cpu.dcache.overallMissRate::cpu.data     0.058941                       # miss rate for overall accesses (Ratio)
system.cpu.dcache.overallMissRate::total     0.058941                       # miss rate for overall accesses (Ratio)
system.cpu.dcache.demandAvgMissLatency::cpu.data 61799.049685                       # average overall miss latency in ticks ((Tick/Count))
system.cpu.dcache.demandAvgMissLatency::total 61799.049685                       # average overall miss latency in ticks ((Tick/Count))
system.cpu.dcache.overallAvgMissLatency::cpu.data 61799.049685                       # average overall miss latency ((Tick/Count))
system.cpu.dcache.overallAvgMissLatency::total 61799.049685                       # average overall miss latency ((Tick/Count))
system.cpu.dcache.blockedCycles::no_mshrs        20868                       # number of cycles access was blocked (Cycle)
system.cpu.dcache.blockedCycles::no_targets          607                       # number of cycles access was blocked (Cycle)
system.cpu.dcache.blockedCauses::no_mshrs          467                       # number of times access was blocked (Count)
system.cpu.dcache.blockedCauses::no_targets            4                       # number of times access was blocked (Count)
system.cpu.dcache.avgBlocked::no_mshrs      44.685225                       # average number of cycles each access was blocked ((Cycle/Count))
system.cpu.dcache.avgBlocked::no_targets   151.750000                       # average number of cycles each access was blocked ((Cycle/Count))
system.cpu.dcache.writebacks::writebacks         3131                       # number of writebacks (Count)
system.cpu.dcache.writebacks::total              3131                       # number of writebacks (Count)
system.cpu.dcache.demandMshrHits::cpu.data        18936                       # number of demand (read+write) MSHR hits (Count)
system.cpu.dcache.demandMshrHits::total         18936                       # number of demand (read+write) MSHR hits (Count)
system.cpu.dcache.overallMshrHits::cpu.data        18936                       # number of overall MSHR hits (Count)
system.cpu.dcache.overallMshrHits::total        18936                       # number of overall MSHR hits (Count)
system.cpu.dcache.demandMshrMisses::cpu.data        11818                       # number of demand (read+write) MSHR misses (Count)
system.cpu.dcache.demandMshrMisses::total        11818                       # number of demand (read+write) MSHR misses (Count)
system.cpu.dcache.overallMshrMisses::cpu.data        11818                       # number of overall MSHR misses (Count)
system.cpu.dcache.overallMshrMisses::total        11818                       # number of overall MSHR misses (Count)
system.cpu.dcache.demandMshrMissLatency::cpu.data    749463974                       # number of demand (read+write) MSHR miss ticks (Tick)
system.cpu.dcache.demandMshrMissLatency::total    749463974                       # number of demand (read+write) MSHR miss ticks (Tick)
system.cpu.dcache.overallMshrMissLatency::cpu.data    749463974                       # number of overall MSHR miss ticks (Tick)
system.cpu.dcache.overallMshrMissLatency::total    749463974                       # number of overall MSHR miss ticks (Tick)
system.cpu.dcache.demandMshrMissRate::cpu.data     0.022649                       # mshr miss ratio for demand accesses (Ratio)
system.cpu.dcache.demandMshrMissRate::total     0.022649                       # mshr miss ratio for demand accesses (Ratio)
system.cpu.dcache.overallMshrMissRate::cpu.data     0.022649                       # mshr miss ratio for overall accesses (Ratio)
system.cpu.dcache.overallMshrMissRate::total     0.022649                       # mshr miss ratio for overall accesses (Ratio)
system.cpu.dcache.demandAvgMshrMissLatency::cpu.data 63417.158064                       # average overall mshr miss latency ((Tick/Count))
system.cpu.dcache.demandAvgMshrMissLatency::total 63417.158064                       # average overall mshr miss latency ((Tick/Count))
system.cpu.dcache.overallAvgMshrMissLatency::cpu.data 63417.158064                       # average overall mshr miss latency ((Tick/Count))
system.cpu.dcache.overallAvgMshrMissLatency::total 63417.158064                       # average overall mshr miss latency ((Tick/Count))
system.cpu.dcache.replacements                  10791                       # number of replacements (Count)
system.cpu.dcache.ReadReq.hits::cpu.data       356126                       # number of ReadReq hits (Count)
system.cpu.dcache.ReadReq.hits::total          356126                       # number of ReadReq hits (Count)
system.cpu.dcache.ReadReq.misses::cpu.data        26930                       # number of ReadReq misses (Count)
system.cpu.dcache.ReadReq.misses::total         26930                       # number of ReadReq misses (Count)
system.cpu.dcache.ReadReq.missLatency::cpu.data   1669996500                       # number of ReadReq miss ticks (Tick)
system.cpu.dcache.ReadReq.missLatency::total   1669996500                       # number of ReadReq miss ticks (Tick)
system.cpu.dcache.ReadReq.accesses::cpu.data       383056                       # number of ReadReq accesses(hits+misses) (Count)
system.cpu.dcache.ReadReq.accesses::total       383056                       # number of ReadReq accesses(hits+misses) (Count)
system.cpu.dcache.ReadReq.missRate::cpu.data     0.070303                       # miss rate for ReadReq accesses (Ratio)
system.cpu.dcache.ReadReq.missRate::total     0.070303                       # miss rate for ReadReq accesses (Ratio)
system.cpu.dcache.ReadReq.avgMissLatency::cpu.data 62012.495358                       # average ReadReq miss latency ((Tick/Count))
system.cpu.dcache.ReadReq.avgMissLatency::total 62012.495358                       # average ReadReq miss latency ((Tick/Count))
system.cpu.dcache.ReadReq.mshrHits::cpu.data        18928                       # number of ReadReq MSHR hits (Count)
system.cpu.dcache.ReadReq.mshrHits::total        18928                       # number of ReadReq MSHR hits (Count)
system.cpu.dcache.ReadReq.mshrMisses::cpu.data         8002                       # number of ReadReq MSHR misses (Count)
system.cpu.dcache.ReadReq.mshrMisses::total         8002                       # number of ReadReq MSHR misses (Count)
system.cpu.dcache.ReadReq.mshrMissLatency::cpu.data    523038500                       # number of ReadReq MSHR miss ticks (Tick)
system.cpu.dcache.ReadReq.mshrMissLatency::total    523038500                       # number of ReadReq MSHR miss ticks (Tick)
system.cpu.dcache.ReadReq.mshrMissRate::cpu.data     0.020890                       # mshr miss rate for ReadReq accesses (Ratio)
system.cpu.dcache.ReadReq.mshrMissRate::total     0.020890                       # mshr miss rate for ReadReq accesses (Ratio)
system.cpu.dcache.ReadReq.avgMshrMissLatency::cpu.data 65363.471632                       # average ReadReq mshr miss latency ((Tick/Count))
system.cpu.dcache.ReadReq.avgMshrMissLatency::total 65363.471632                       # average ReadReq mshr miss latency ((Tick/Count))
system.cpu.dcache.WriteReq.hits::cpu.data       134899                       # number of WriteReq hits (Count)
system.cpu.dcache.WriteReq.hits::total         134899                       # number of WriteReq hits (Count)
system.cpu.dcache.WriteReq.misses::cpu.data         3824                       # number of WriteReq misses (Count)
system.cpu.dcache.WriteReq.misses::total         3824                       # number of WriteReq misses (Count)
system.cpu.dcache.WriteReq.missLatency::cpu.data    230571474                       # number of WriteReq miss ticks (Tick)
system.cpu.dcache.WriteReq.missLatency::total    230571474                       # number of WriteReq miss ticks (Tick)
system.cpu.dcache.WriteReq.accesses::cpu.data       138723                       # number of WriteReq accesses(hits+misses) (Count)
system.cpu.dcache.WriteReq.accesses::total       138723                       # number of WriteReq accesses(hits+misses) (Count)
system.cpu.dcache.WriteReq.missRate::cpu.data     0.027566                       # miss rate for WriteReq accesses (Ratio)
system.cpu.dcache.WriteReq.missRate::total     0.027566                       # miss rate for WriteReq accesses (Ratio)
system.cpu.dcache.WriteReq.avgMissLatency::cpu.data 60295.887552                       # average WriteReq miss latency ((Tick/Count))
system.cpu.dcache.WriteReq.avgMissLatency::total 60295.887552                       # average WriteReq miss latency ((Tick/Count))
system.cpu.dcache.WriteReq.mshrHits::cpu.data            8                       # number of WriteReq MSHR hits (Count)
system.cpu.dcache.WriteReq.mshrHits::total            8                       # number of WriteReq MSHR hits (Count)
system.cpu.dcache.WriteReq.mshrMisses::cpu.data         3816                       # number of WriteReq MSHR misses (Count)
system.cpu.dcache.WriteReq.mshrMisses::total         3816                       # number of WriteReq MSHR misses (Count)
system.cpu.dcache.WriteReq.mshrMissLatency::cpu.data    226425474                       # number of WriteReq MSHR miss ticks (Tick)
system.cpu.dcache.WriteReq.mshrMissLatency::total    226425474                       # number of WriteReq MSHR miss ticks (Tick)
system.cpu.dcache.WriteReq.mshrMissRate::cpu.data     0.027508                       # mshr miss rate for WriteReq accesses (Ratio)
system.cpu.dcache.WriteReq.mshrMissRate::total     0.027508                       # mshr miss rate for WriteReq accesses (Ratio)
system.cpu.dcache.WriteReq.avgMshrMissLatency::cpu.data 59335.816038                       # average WriteReq mshr miss latency ((Tick/Count))
system.cpu.dcache.WriteReq.avgMshrMissLatency::total 59335.816038                       # average WriteReq mshr miss latency ((Tick/Count))
system.cpu.dcache.power_state.pwrStateResidencyTicks::UNDEFINED    972981500                       # Cumulative time (in ticks) in various power states (Tick)
system.cpu.dcache.tags.tagsInUse           968.146138                       # Average ticks per tags in use ((Tick/Count))
system.cpu.dcache.tags.totalRefs               426550                       # Total number of references to valid blocks. (Count)
system.cpu.dcache.tags.sampledRefs              10791                       # Sample count of references to valid blocks. (Count)
system.cpu.dcache.tags.avgRefs              39.528311                       # Average number of references to valid blocks. ((Count/Count))
system.cpu.dcache.tags.warmupTick              148000                       # The tick when the warmup percentage was hit. (Tick)
system.cpu.dcache.tags.occupancies::cpu.data   968.146138                       # Average occupied blocks per tick, per requestor ((Count/Tick))
system.cpu.dcache.tags.avgOccs::cpu.data     0.945455                       # Average percentage of cache occupancy ((Ratio/Tick))
system.cpu.dcache.tags.avgOccs::total        0.945455                       # Average percentage of cache occupancy ((Ratio/Tick))
system.cpu.dcache.tags.occupanciesTaskId::1024         1024                       # Occupied blocks per task id (Count)
system.cpu.dcache.tags.ageTaskId_1024::0          133                       # Occupied blocks per task id, per block age (Count)
system.cpu.dcache.tags.ageTaskId_1024::1          890                       # Occupied blocks per task id, per block age (Count)
system.cpu.dcache.tags.ageTaskId_1024::2            1                       # Occupied blocks per task id, per block age (Count)
system.cpu.dcache.tags.ratioOccsTaskId::1024            1                       # Ratio of occupied blocks and all blocks, per task id (Ratio)
system.cpu.dcache.tags.tagAccesses            1055373                       # Number of tag accesses (Count)
system.cpu.dcache.tags.dataAccesses           1055373                       # Number of data accesses (Count)
system.cpu.dcache.tags.power_state.pwrStateResidencyTicks::UNDEFINED    972981500                       # Cumulative time (in ticks) in various power states (Tick)
system.cpu.decode.idleCycles                   199913                       # Number of cycles decode is idle (Cycle)
system.cpu.decode.blockedCycles               1198162                       # Number of cycles decode is blocked (Cycle)
system.cpu.decode.runCycles                    366372                       # Number of cycles decode is running (Cycle)
system.cpu.decode.unblockCycles                125158                       # Number of cycles decode is unblocking (Cycle)
system.cpu.decode.squashCycles                  12255                       # Number of cycles decode is squashing (Cycle)
system.cpu.decode.branchResolved               166755                       # Number of times decode resolved a branch (Count)
system.cpu.decode.branchMispred                   518                       # Number of times decode detected a branch misprediction (Count)
system.cpu.decode.decodedInsts                3493553                       # Number of instructions handled by decode (Count)
system.cpu.decode.squashedInsts                  2374                       # Number of squashed instructions handled by decode (Count)
system.cpu.dtb_walker_cache.blockedCycles::no_mshrs            0                       # number of cycles access was blocked (Cycle)
system.cpu.dtb_walker_cache.blockedCycles::no_targets            0                       # number of cycles access was blocked (Cycle)
system.cpu.dtb_walker_cache.blockedCauses::no_mshrs            0                       # number of times access was blocked (Count)
system.cpu.dtb_walker_cache.blockedCauses::no_targets            0                       # number of times access was blocked (Count)
system.cpu.dtb_walker_cache.avgBlocked::no_mshrs          nan                       # average number of cycles each access was blocked ((Cycle/Count))
system.cpu.dtb_walker_cache.avgBlocked::no_targets          nan                       # average number of cycles each access was blocked ((Cycle/Count))
system.cpu.dtb_walker_cache.replacements            0                       # number of replacements (Count)
system.cpu.dtb_walker_cache.power_state.pwrStateResidencyTicks::UNDEFINED    972981500                       # Cumulative time (in ticks) in various power states (Tick)
system.cpu.dtb_walker_cache.tags.tagsInUse            0                       # Average ticks per tags in use ((Tick/Count))
system.cpu.dtb_walker_cache.tags.totalRefs            0                       # Total number of references to valid blocks. (Count)
system.cpu.dtb_walker_cache.tags.sampledRefs            0                       # Sample count of references to valid blocks. (Count)
system.cpu.dtb_walker_cache.tags.avgRefs          nan                       # Average number of references to valid blocks. ((Count/Count))
system.cpu.dtb_walker_cache.tags.warmupTick            0                       # The tick when the warmup percentage was hit. (Tick)
system.cpu.dtb_walker_cache.tags.tagAccesses            0                       # Number of tag accesses (Count)
system.cpu.dtb_walker_cache.tags.dataAccesses            0                       # Number of data accesses (Count)
system.cpu.dtb_walker_cache.tags.power_state.pwrStateResidencyTicks::UNDEFINED    972981500                       # Cumulative time (in ticks) in various power states (Tick)
system.cpu.fetch.icacheStallCycles             213629                       # Number of cycles fetch is stalled on an Icache miss (Cycle)
system.cpu.fetch.insts                        2318459                       # Number of instructions fetch has processed (Count)
system.cpu.fetch.branches                      355158                       # Number of branches that fetch encountered (Count)
system.cpu.fetch.predictedBranches             197408                       # Number of branches that fetch has predicted taken (Count)
system.cpu.fetch.cycles                       1674364                       # Number of cycles fetch has run and was not squashing or blocked (Cycle)
system.cpu.fetch.squashCycles                   25508                       # Number of cycles fetch has spent squashing (Cycle)
system.cpu.fetch.miscStallCycles                  142                       # Number of cycles fetch has spent waiting on interrupts, or bad addresses, or out of MSHRs (Cycle)
system.cpu.fetch.pendingTrapStallCycles           971                       # Number of stall cycles due to pending traps (Cycle)
system.cpu.fetch.cacheLines                    181803                       # Number of cache lines fetched (Count)
system.cpu.fetch.icacheSquashes                  3056                       # Number of outstanding Icache misses that were squashed (Count)
system.cpu.fetch.nisnDist::samples            1901860                       # Number of instructions fetched each cycle (Total) (Count)
system.cpu.fetch.nisnDist::mean              1.948629                       # Number of instructions fetched each cycle (Total) (Count)
system.cpu.fetch.nisnDist::stdev             3.123035                       # Number of instructions fetched each cycle (Total) (Count)
system.cpu.fetch.nisnDist::underflows               0      0.00%      0.00% # Number of instructions fetched each cycle (Total) (Count)
system.cpu.fetch.nisnDist::0                  1297862     68.24%     68.24% # Number of instructions fetched each cycle (Total) (Count)
system.cpu.fetch.nisnDist::1                    19734      1.04%     69.28% # Number of instructions fetched each cycle (Total) (Count)
system.cpu.fetch.nisnDist::2                    33751      1.77%     71.05% # Number of instructions fetched each cycle (Total) (Count)
system.cpu.fetch.nisnDist::3                    38823      2.04%     73.10% # Number of instructions fetched each cycle (Total) (Count)
system.cpu.fetch.nisnDist::4                    91791      4.83%     77.92% # Number of instructions fetched each cycle (Total) (Count)
system.cpu.fetch.nisnDist::5                    29216      1.54%     79.46% # Number of instructions fetched each cycle (Total) (Count)
system.cpu.fetch.nisnDist::6                    55066      2.90%     82.35% # Number of instructions fetched each cycle (Total) (Count)
system.cpu.fetch.nisnDist::7                    26261      1.38%     83.73% # Number of instructions fetched each cycle (Total) (Count)
system.cpu.fetch.nisnDist::8                   309356     16.27%    100.00% # Number of instructions fetched each cycle (Total) (Count)
system.cpu.fetch.nisnDist::overflows                0      0.00%    100.00% # Number of instructions fetched each cycle (Total) (Count)
system.cpu.fetch.nisnDist::min_value                0                       # Number of instructions fetched each cycle (Total) (Count)
system.cpu.fetch.nisnDist::max_value                8                       # Number of instructions fetched each cycle (Total) (Count)
system.cpu.fetch.nisnDist::total              1901860                       # Number of instructions fetched each cycle (Total) (Count)
system.cpu.fetch.branchRate                  0.182510                       # Number of branch fetches per cycle (Ratio)
system.cpu.fetch.rate                        1.191419                       # Number of inst fetches per cycle ((Count/Cycle))
system.cpu.icache.demandHits::cpu.inst         180631                       # number of demand (read+write) hits (Count)
system.cpu.icache.demandHits::total            180631                       # number of demand (read+write) hits (Count)
system.cpu.icache.overallHits::cpu.inst        180631                       # number of overall hits (Count)
system.cpu.icache.overallHits::total           180631                       # number of overall hits (Count)
system.cpu.icache.demandMisses::cpu.inst         1172                       # number of demand (read+write) misses (Count)
system.cpu.icache.demandMisses::total            1172                       # number of demand (read+write) misses (Count)
system.cpu.icache.overallMisses::cpu.inst         1172                       # number of overall misses (Count)
system.cpu.icache.overallMisses::total           1172                       # number of overall misses (Count)
system.cpu.icache.demandMissLatency::cpu.inst     65975500                       # number of demand (read+write) miss ticks (Tick)
system.cpu.icache.demandMissLatency::total     65975500                       # number of demand (read+write) miss ticks (Tick)
system.cpu.icache.overallMissLatency::cpu.inst     65975500                       # number of overall miss ticks (Tick)
system.cpu.icache.overallMissLatency::total     65975500                       # number of overall miss ticks (Tick)
system.cpu.icache.demandAccesses::cpu.inst       181803                       # number of demand (read+write) accesses (Count)
system.cpu.icache.demandAccesses::total        181803                       # number of demand (read+write) accesses (Count)
system.cpu.icache.overallAccesses::cpu.inst       181803                       # number of overall (read+write) accesses (Count)
system.cpu.icache.overallAccesses::total       181803                       # number of overall (read+write) accesses (Count)
system.cpu.icache.demandMissRate::cpu.inst     0.006447                       # miss rate for demand accesses (Ratio)
system.cpu.icache.demandMissRate::total      0.006447                       # miss rate for demand accesses (Ratio)
system.cpu.icache.overallMissRate::cpu.inst     0.006447                       # miss rate for overall accesses (Ratio)
system.cpu.icache.overallMissRate::total     0.006447                       # miss rate for overall accesses (Ratio)
system.cpu.icache.demandAvgMissLatency::cpu.inst 56293.088737                       # average overall miss latency in ticks ((Tick/Count))
system.cpu.icache.demandAvgMissLatency::total 56293.088737                       # average overall miss latency in ticks ((Tick/Count))
system.cpu.icache.overallAvgMissLatency::cpu.inst 56293.088737                       # average overall miss latency ((Tick/Count))
system.cpu.icache.overallAvgMissLatency::total 56293.088737                       # average overall miss latency ((Tick/Count))
system.cpu.icache.blockedCycles::no_mshrs            0                       # number of cycles access was blocked (Cycle)
system.cpu.icache.blockedCycles::no_targets            0                       # number of cycles access was blocked (Cycle)
system.cpu.icache.blockedCauses::no_mshrs            0                       # number of times access was blocked (Count)
system.cpu.icache.blockedCauses::no_targets            0                       # number of times access was blocked (Count)
system.cpu.icache.avgBlocked::no_mshrs            nan                       # average number of cycles each access was blocked ((Cycle/Count))
system.cpu.icache.avgBlocked::no_targets          nan                       # average number of cycles each access was blocked ((Cycle/Count))
system.cpu.icache.writebacks::writebacks          362                       # number of writebacks (Count)
system.cpu.icache.writebacks::total               362                       # number of writebacks (Count)
system.cpu.icache.demandMshrHits::cpu.inst          330                       # number of demand (read+write) MSHR hits (Count)
system.cpu.icache.demandMshrHits::total           330                       # number of demand (read+write) MSHR hits (Count)
system.cpu.icache.overallMshrHits::cpu.inst          330                       # number of overall MSHR hits (Count)
system.cpu.icache.overallMshrHits::total          330                       # number of overall MSHR hits (Count)
system.cpu.icache.demandMshrMisses::cpu.inst          842                       # number of demand (read+write) MSHR misses (Count)
system.cpu.icache.demandMshrMisses::total          842                       # number of demand (read+write) MSHR misses (Count)
system.cpu.icache.overallMshrMisses::cpu.inst          842                       # number of overall MSHR misses (Count)
system.cpu.icache.overallMshrMisses::total          842                       # number of overall MSHR misses (Count)
system.cpu.icache.demandMshrMissLatency::cpu.inst     50235500                       # number of demand (read+write) MSHR miss ticks (Tick)
system.cpu.icache.demandMshrMissLatency::total     50235500                       # number of demand (read+write) MSHR miss ticks (Tick)
system.cpu.icache.overallMshrMissLatency::cpu.inst     50235500                       # number of overall MSHR miss ticks (Tick)
system.cpu.icache.overallMshrMissLatency::total     50235500                       # number of overall MSHR miss ticks (Tick)
system.cpu.icache.demandMshrMissRate::cpu.inst     0.004631                       # mshr miss ratio for demand accesses (Ratio)
system.cpu.icache.demandMshrMissRate::total     0.004631                       # mshr miss ratio for demand accesses (Ratio)
system.cpu.icache.overallMshrMissRate::cpu.inst     0.004631                       # mshr miss ratio for overall accesses (Ratio)
system.cpu.icache.overallMshrMissRate::total     0.004631                       # mshr miss ratio for overall accesses (Ratio)
system.cpu.icache.demandAvgMshrMissLatency::cpu.inst 59662.114014                       # average overall mshr miss latency ((Tick/Count))
system.cpu.icache.demandAvgMshrMissLatency::total 59662.114014                       # average overall mshr miss latency ((Tick/Count))
system.cpu.icache.overallAvgMshrMissLatency::cpu.inst 59662.114014                       # average overall mshr miss latency ((Tick/Count))
system.cpu.icache.overallAvgMshrMissLatency::total 59662.114014                       # average overall mshr miss latency ((Tick/Count))
system.cpu.icache.replacements                    362                       # number of replacements (Count)
system.cpu.icache.ReadReq.hits::cpu.inst       180631                       # number of ReadReq hits (Count)
system.cpu.icache.ReadReq.hits::total          180631                       # number of ReadReq hits (Count)
system.cpu.icache.ReadReq.misses::cpu.inst         1172                       # number of ReadReq misses (Count)
system.cpu.icache.ReadReq.misses::total          1172                       # number of ReadReq misses (Count)
system.cpu.icache.ReadReq.missLatency::cpu.inst     65975500                       # number of ReadReq miss ticks (Tick)
system.cpu.icache.ReadReq.missLatency::total     65975500                       # number of ReadReq miss ticks (Tick)
system.cpu.icache.ReadReq.accesses::cpu.inst       181803                       # number of ReadReq accesses(hits+misses) (Count)
system.cpu.icache.ReadReq.accesses::total       181803                       # number of ReadReq accesses(hits+misses) (Count)
system.cpu.icache.ReadReq.missRate::cpu.inst     0.006447                       # miss rate for ReadReq accesses (Ratio)
system.cpu.icache.ReadReq.missRate::total     0.006447                       # miss rate for ReadReq accesses (Ratio)
system.cpu.icache.ReadReq.avgMissLatency::cpu.inst 56293.088737                       # average ReadReq miss latency ((Tick/Count))
system.cpu.icache.ReadReq.avgMissLatency::total 56293.088737                       # average ReadReq miss latency ((Tick/Count))
system.cpu.icache.ReadReq.mshrHits::cpu.inst          330                       # number of ReadReq MSHR hits (Count)
system.cpu.icache.ReadReq.mshrHits::total          330                       # number of ReadReq MSHR hits (Count)
system.cpu.icache.ReadReq.mshrMisses::cpu.inst          842                       # number of ReadReq MSHR misses (Count)
system.cpu.icache.ReadReq.mshrMisses::total          842                       # number of ReadReq MSHR misses (Count)
system.cpu.icache.ReadReq.mshrMissLatency::cpu.inst     50235500                       # number of ReadReq MSHR miss ticks (Tick)
system.cpu.icache.ReadReq.mshrMissLatency::total     50235500                       # number of ReadReq MSHR miss ticks (Tick)
system.cpu.icache.ReadReq.mshrMissRate::cpu.inst     0.004631                       # mshr miss rate for ReadReq accesses (Ratio)
system.cpu.icache.ReadReq.mshrMissRate::total     0.004631                       # mshr miss rate for ReadReq accesses (Ratio)
system.cpu.icache.ReadReq.avgMshrMissLatency::cpu.inst 59662.114014                       # average ReadReq mshr miss latency ((Tick/Count))
system.cpu.icache.ReadReq.avgMshrMissLatency::total 59662.114014                       # average ReadReq mshr miss latency ((Tick/Count))
system.cpu.icache.power_state.pwrStateResidencyTicks::UNDEFINED    972981500                       # Cumulative time (in ticks) in various power states (Tick)
system.cpu.icache.tags.tagsInUse           451.361001                       # Average ticks per tags in use ((Tick/Count))
system.cpu.icache.tags.totalRefs                22233                       # Total number of references to valid blocks. (Count)
system.cpu.icache.tags.sampledRefs                362                       # Sample count of references to valid blocks. (Count)
system.cpu.icache.tags.avgRefs              61.417127                       # Average number of references to valid blocks. ((Count/Count))
system.cpu.icache.tags.warmupTick               77000                       # The tick when the warmup percentage was hit. (Tick)
system.cpu.icache.tags.occupancies::cpu.inst   451.361001                       # Average occupied blocks per tick, per requestor ((Count/Tick))
system.cpu.icache.tags.avgOccs::cpu.inst     0.881564                       # Average percentage of cache occupancy ((Ratio/Tick))
system.cpu.icache.tags.avgOccs::total        0.881564                       # Average percentage of cache occupancy ((Ratio/Tick))
system.cpu.icache.tags.occupanciesTaskId::1024          480                       # Occupied blocks per task id (Count)
system.cpu.icache.tags.ageTaskId_1024::0            2                       # Occupied blocks per task id, per block age (Count)
system.cpu.icache.tags.ageTaskId_1024::2          478                       # Occupied blocks per task id, per block age (Count)
system.cpu.icache.tags.ratioOccsTaskId::1024     0.937500                       # Ratio of occupied blocks and all blocks, per task id (Ratio)
system.cpu.icache.tags.tagAccesses             364448                       # Number of tag accesses (Count)
system.cpu.icache.tags.dataAccesses            364448                       # Number of data accesses (Count)
system.cpu.icache.tags.power_state.pwrStateResidencyTicks::UNDEFINED    972981500                       # Cumulative time (in ticks) in various power states (Tick)
system.cpu.iew.idleCycles                           0                       # Number of cycles IEW is idle (Cycle)
system.cpu.iew.squashCycles                     12255                       # Number of cycles IEW is squashing (Cycle)
system.cpu.iew.blockCycles                     509263                       # Number of cycles IEW is blocking (Cycle)
system.cpu.iew.unblockCycles                    16027                       # Number of cycles IEW is unblocking (Cycle)
system.cpu.iew.dispatchedInsts                3339506                       # Number of instructions dispatched to IQ (Count)
system.cpu.iew.dispSquashedInsts                  430                       # Number of squashed instructions skipped by dispatch (Count)
system.cpu.iew.dispLoadInsts                   529652                       # Number of dispatched load instructions (Count)
system.cpu.iew.dispStoreInsts                  176981                       # Number of dispatched store instructions (Count)
system.cpu.iew.dispNonSpecInsts                    85                       # Number of dispatched non-speculative instructions (Count)
system.cpu.iew.iqFullEvents                      2865                       # Number of times the IQ has become full, causing a stall (Count)
system.cpu.iew.lsqFullEvents                    10131                       # Number of times the LSQ has become full, causing a stall (Count)
system.cpu.iew.memOrderViolationEvents             90                       # Number of memory order violations (Count)
system.cpu.iew.predictedTakenIncorrect           5588                       # Number of branches that were predicted taken incorrectly (Count)
system.cpu.iew.predictedNotTakenIncorrect         6921                       # Number of branches that were predicted not taken incorrectly (Count)
system.cpu.iew.branchMispredicts                12509                       # Number of branch mispredicts detected at execute (Count)
system.cpu.iew.instsToCommit                  2977543                       # Cumulative count of insts sent to commit (Count)
system.cpu.iew.writebackCount                 2970919                       # Cumulative count of insts written-back (Count)
system.cpu.iew.producerInst                   2404722                       # Number of instructions producing a value (Count)
system.cpu.iew.consumerInst                   4412103                       # Number of instructions consuming a value (Count)
system.cpu.iew.wbRate                        1.526708                       # Insts written-back per cycle ((Count/Cycle))
system.cpu.iew.wbFanout                      0.545029                       # Average fanout of values written-back ((Count/Count))
system.cpu.interrupts.clk_domain.clock           8000                       # Clock period in ticks (Tick)
system.cpu.itb_walker_cache.blockedCycles::no_mshrs            0                       # number of cycles access was blocked (Cycle)
system.cpu.itb_walker_cache.blockedCycles::no_targets            0                       # number of cycles access was blocked (Cycle)
system.cpu.itb_walker_cache.blockedCauses::no_mshrs            0                       # number of times access was blocked (Count)
system.cpu.itb_walker_cache.blockedCauses::no_targets            0                       # number of times access was blocked (Count)
system.cpu.itb_walker_cache.avgBlocked::no_mshrs          nan                       # average number of cycles each access was blocked ((Cycle/Count))
system.cpu.itb_walker_cache.avgBlocked::no_targets          nan                       # average number of cycles each access was blocked ((Cycle/Count))
system.cpu.itb_walker_cache.replacements            0                       # number of replacements (Count)
system.cpu.itb_walker_cache.power_state.pwrStateResidencyTicks::UNDEFINED    972981500                       # Cumulative time (in ticks) in various power states (Tick)
system.cpu.itb_walker_cache.tags.tagsInUse            0                       # Average ticks per tags in use ((Tick/Count))
system.cpu.itb_walker_cache.tags.totalRefs            0                       # Total number of references to valid blocks. (Count)
system.cpu.itb_walker_cache.tags.sampledRefs            0                       # Sample count of references to valid blocks. (Count)
system.cpu.itb_walker_cache.tags.avgRefs          nan                       # Average number of references to valid blocks. ((Count/Count))
system.cpu.itb_walker_cache.tags.warmupTick            0                       # The tick when the warmup percentage was hit. (Tick)
system.cpu.itb_walker_cache.tags.tagAccesses            0                       # Number of tag accesses (Count)
system.cpu.itb_walker_cache.tags.dataAccesses            0                       # Number of data accesses (Count)
system.cpu.itb_walker_cache.tags.power_state.pwrStateResidencyTicks::UNDEFINED    972981500                       # Cumulative time (in ticks) in various power states (Tick)
system.cpu.lsq0.forwLoads                       96596                       # Number of loads that had data forwarded from stores (Count)
system.cpu.lsq0.squashedLoads                  120165                       # Number of loads squashed (Count)
system.cpu.lsq0.ignoredResponses                  194                       # Number of memory responses ignored because the instruction is squashed (Count)
system.cpu.lsq0.memOrderViolation                  90                       # Number of memory ordering violations (Count)
system.cpu.lsq0.squashedStores                  38251                       # Number of stores squashed (Count)
system.cpu.lsq0.rescheduledLoads                    0                       # Number of loads that were rescheduled (Count)
system.cpu.lsq0.blockedByCache                    446                       # Number of times an access to memory failed due to the cache being blocked (Count)
system.cpu.lsq0.loadToUse::samples             409480                       # Distribution of cycle latency between the first time a load is issued and its completion (Unspecified)
system.cpu.lsq0.loadToUse::mean              9.700208                       # Distribution of cycle latency between the first time a load is issued and its completion (Unspecified)
system.cpu.lsq0.loadToUse::stdev            32.703609                       # Distribution of cycle latency between the first time a load is issued and its completion (Unspecified)
system.cpu.lsq0.loadToUse::0-9                 387315     94.59%     94.59% # Distribution of cycle latency between the first time a load is issued and its completion (Unspecified)
system.cpu.lsq0.loadToUse::10-19                  427      0.10%     94.69% # Distribution of cycle latency between the first time a load is issued and its completion (Unspecified)
system.cpu.lsq0.loadToUse::20-29                  178      0.04%     94.73% # Distribution of cycle latency between the first time a load is issued and its completion (Unspecified)
system.cpu.lsq0.loadToUse::30-39                   44      0.01%     94.75% # Distribution of cycle latency between the first time a load is issued and its completion (Unspecified)
system.cpu.lsq0.loadToUse::40-49                   60      0.01%     94.76% # Distribution of cycle latency between the first time a load is issued and its completion (Unspecified)
system.cpu.lsq0.loadToUse::50-59                   53      0.01%     94.77% # Distribution of cycle latency between the first time a load is issued and its completion (Unspecified)
system.cpu.lsq0.loadToUse::60-69                  129      0.03%     94.80% # Distribution of cycle latency between the first time a load is issued and its completion (Unspecified)
system.cpu.lsq0.loadToUse::70-79                  752      0.18%     94.99% # Distribution of cycle latency between the first time a load is issued and its completion (Unspecified)
system.cpu.lsq0.loadToUse::80-89                 1031      0.25%     95.24% # Distribution of cycle latency between the first time a load is issued and its completion (Unspecified)
system.cpu.lsq0.loadToUse::90-99                  888      0.22%     95.46% # Distribution of cycle latency between the first time a load is issued and its completion (Unspecified)
[...]
system.mem_ctrls.dram.perBankRdBursts::14          614                       # Per bank write bursts (Count)
system.mem_ctrls.dram.perBankRdBursts::15          153                       # Per bank write bursts (Count)
system.mem_ctrls.dram.perBankWrBursts::0          254                       # Per bank write bursts (Count)
system.mem_ctrls.dram.perBankWrBursts::1          834                       # Per bank write bursts (Count)
system.mem_ctrls.dram.perBankWrBursts::2          613                       # Per bank write bursts (Count)
system.mem_ctrls.dram.perBankWrBursts::3          131                       # Per bank write bursts (Count)
system.mem_ctrls.dram.perBankWrBursts::4           55                       # Per bank write bursts (Count)
system.mem_ctrls.dram.perBankWrBursts::5           64                       # Per bank write bursts (Count)
system.mem_ctrls.dram.perBankWrBursts::6            0                       # Per bank write bursts (Count)
system.mem_ctrls.dram.perBankWrBursts::7            0                       # Per bank write bursts (Count)
system.mem_ctrls.dram.perBankWrBursts::8          122                       # Per bank write bursts (Count)
system.mem_ctrls.dram.perBankWrBursts::9          892                       # Per bank write bursts (Count)
system.mem_ctrls.dram.perBankWrBursts::10          584                       # Per bank write bursts (Count)
system.mem_ctrls.dram.perBankWrBursts::11           43                       # Per bank write bursts (Count)
system.mem_ctrls.dram.perBankWrBursts::12          206                       # Per bank write bursts (Count)
system.mem_ctrls.dram.perBankWrBursts::13          768                       # Per bank write bursts (Count)
system.mem_ctrls.dram.perBankWrBursts::14          488                       # Per bank write bursts (Count)
system.mem_ctrls.dram.perBankWrBursts::15           24                       # Per bank write bursts (Count)
system.mem_ctrls.dram.totQLat                38118500                       # Total ticks spent queuing (Tick)
system.mem_ctrls.dram.totBusLat              25685000                       # Total ticks spent in databus transfers (Tick)
system.mem_ctrls.dram.totMemAccLat          134437250                       # Total ticks spent from burst creation until serviced by the DRAM (Tick)
system.mem_ctrls.dram.avgQLat                 7420.38                       # Average queueing delay per DRAM burst ((Tick/Count))
system.mem_ctrls.dram.avgBusLat               5000.00                       # Average bus latency per DRAM burst ((Tick/Count))
system.mem_ctrls.dram.avgMemAccLat           26170.38                       # Average memory access latency per DRAM burst ((Tick/Count))
system.mem_ctrls.dram.readRowHits                4649                       # Number of row buffer hits during reads (Count)
system.mem_ctrls.dram.writeRowHits               4500                       # Number of row buffer hits during writes (Count)
system.mem_ctrls.dram.readRowHitRate            90.50                       # Row buffer hit rate for reads (Ratio)
system.mem_ctrls.dram.writeRowHitRate           88.62                       # Row buffer hit rate for writes (Ratio)
system.mem_ctrls.dram.bytesPerActivate::samples         1075                       # Bytes accessed per row activation (Byte)
system.mem_ctrls.dram.bytesPerActivate::mean   609.577674                       # Bytes accessed per row activation (Byte)
system.mem_ctrls.dram.bytesPerActivate::gmean   425.690175                       # Bytes accessed per row activation (Byte)
system.mem_ctrls.dram.bytesPerActivate::stdev   387.027651                       # Bytes accessed per row activation (Byte)
system.mem_ctrls.dram.bytesPerActivate::0-127          121     11.26%     11.26% # Bytes accessed per row activation (Byte)
system.mem_ctrls.dram.bytesPerActivate::128-255          181     16.84%     28.09% # Bytes accessed per row activation (Byte)
system.mem_ctrls.dram.bytesPerActivate::256-383           91      8.47%     36.56% # Bytes accessed per row activation (Byte)
system.mem_ctrls.dram.bytesPerActivate::384-511           38      3.53%     40.09% # Bytes accessed per row activation (Byte)
system.mem_ctrls.dram.bytesPerActivate::512-639           34      3.16%     43.26% # Bytes accessed per row activation (Byte)
system.mem_ctrls.dram.bytesPerActivate::640-767          157     14.60%     57.86% # Bytes accessed per row activation (Byte)
system.mem_ctrls.dram.bytesPerActivate::768-895           27      2.51%     60.37% # Bytes accessed per row activation (Byte)
system.mem_ctrls.dram.bytesPerActivate::896-1023           30      2.79%     63.16% # Bytes accessed per row activation (Byte)
system.mem_ctrls.dram.bytesPerActivate::1024-1151          396     36.84%    100.00% # Bytes accessed per row activation (Byte)
system.mem_ctrls.dram.bytesPerActivate::total         1075                       # Bytes accessed per row activation (Byte)
system.mem_ctrls.dram.bytesRead                328768                       # Total bytes read (Byte)
system.mem_ctrls.dram.bytesWritten             324992                       # Total bytes written (Byte)
system.mem_ctrls.dram.avgRdBW              138.983130                       # Average DRAM read bandwidth in MiBytes/s ((Byte/Second))
system.mem_ctrls.dram.avgWrBW              137.386867                       # Average DRAM write bandwidth in MiBytes/s ((Byte/Second))
system.mem_ctrls.dram.peakBW                 12800.00                       # Theoretical peak bandwidth in MiByte/s ((Byte/Second))
system.mem_ctrls.dram.busUtil                    2.16                       # Data bus utilization in percentage (Ratio)
system.mem_ctrls.dram.busUtilRead                1.09                       # Data bus utilization in percentage for reads (Ratio)
system.mem_ctrls.dram.busUtilWrite               1.07                       # Data bus utilization in percentage for writes (Ratio)
system.mem_ctrls.dram.pageHitRate               89.56                       # Row buffer hit rate, read and write combined (Ratio)
system.mem_ctrls.dram.power_state.pwrStateResidencyTicks::UNDEFINED   2365524500                       # Cumulative time (in ticks) in various power states (Tick)
system.mem_ctrls.dram.rank0.actEnergy         2863140                       # Energy for activate commands per rank (pJ) (Joule)
system.mem_ctrls.dram.rank0.preEnergy         1540770                       # Energy for precharge commands per rank (pJ) (Joule)
system.mem_ctrls.dram.rank0.readEnergy       12709200                       # Energy for read commands per rank (pJ) (Joule)
system.mem_ctrls.dram.rank0.writeEnergy      10184220                       # Energy for write commands per rank (pJ) (Joule)
system.mem_ctrls.dram.rank0.refreshEnergy 186850560.000000                       # Energy for refresh commands per rank (pJ) (Joule)
system.mem_ctrls.dram.rank0.actBackEnergy    418715730                       # Energy for active background per rank (pJ) (Joule)
system.mem_ctrls.dram.rank0.preBackEnergy    555758400                       # Energy for precharge background per rank (pJ) (Joule)
system.mem_ctrls.dram.rank0.actPowerDownEnergy            0                       # Energy for active power-down per rank (pJ) (Joule)
system.mem_ctrls.dram.rank0.prePowerDownEnergy            0                       # Energy for precharge power-down per rank (pJ) (Joule)
system.mem_ctrls.dram.rank0.selfRefreshEnergy            0                       # Energy for self refresh per rank (pJ) (Joule)
system.mem_ctrls.dram.rank0.totalEnergy    1188622020                       # Total energy per rank (pJ) (Joule)
system.mem_ctrls.dram.rank0.averagePower   502.477155                       # Core power per rank (mW) (Watt)
system.mem_ctrls.dram.rank0.totalIdleTime            0                       # Total Idle time Per DRAM Rank (Tick)
system.mem_ctrls.dram.rank0.pwrStateTime::IDLE   1439646000                       # Time in different power states (Tick)
system.mem_ctrls.dram.rank0.pwrStateTime::REF     79040000                       # Time in different power states (Tick)
system.mem_ctrls.dram.rank0.pwrStateTime::SREF            0                       # Time in different power states (Tick)
system.mem_ctrls.dram.rank0.pwrStateTime::PRE_PDN            0                       # Time in different power states (Tick)
system.mem_ctrls.dram.rank0.pwrStateTime::ACT    846838500                       # Time in different power states (Tick)
system.mem_ctrls.dram.rank0.pwrStateTime::ACT_PDN            0                       # Time in different power states (Tick)
system.mem_ctrls.dram.rank1.actEnergy         4748100                       # Energy for activate commands per rank (pJ) (Joule)
system.mem_ctrls.dram.rank1.preEnergy         2542650                       # Energy for precharge commands per rank (pJ) (Joule)
system.mem_ctrls.dram.rank1.readEnergy       23968980                       # Energy for read commands per rank (pJ) (Joule)
system.mem_ctrls.dram.rank1.writeEnergy      16349040                       # Energy for write commands per rank (pJ) (Joule)
system.mem_ctrls.dram.rank1.refreshEnergy 186850560.000000                       # Energy for refresh commands per rank (pJ) (Joule)
system.mem_ctrls.dram.rank1.actBackEnergy    642169980                       # Energy for active background per rank (pJ) (Joule)
system.mem_ctrls.dram.rank1.preBackEnergy    367586400                       # Energy for precharge background per rank (pJ) (Joule)
system.mem_ctrls.dram.rank1.actPowerDownEnergy            0                       # Energy for active power-down per rank (pJ) (Joule)
system.mem_ctrls.dram.rank1.prePowerDownEnergy            0                       # Energy for precharge power-down per rank (pJ) (Joule)
system.mem_ctrls.dram.rank1.selfRefreshEnergy            0                       # Energy for self refresh per rank (pJ) (Joule)
system.mem_ctrls.dram.rank1.totalEnergy    1244215710                       # Total energy per rank (pJ) (Joule)
system.mem_ctrls.dram.rank1.averagePower   525.978788                       # Core power per rank (mW) (Watt)
system.mem_ctrls.dram.rank1.totalIdleTime            0                       # Total Idle time Per DRAM Rank (Tick)
system.mem_ctrls.dram.rank1.pwrStateTime::IDLE    949180000                       # Time in different power states (Tick)
system.mem_ctrls.dram.rank1.pwrStateTime::REF     79040000                       # Time in different power states (Tick)
system.mem_ctrls.dram.rank1.pwrStateTime::SREF            0                       # Time in different power states (Tick)
system.mem_ctrls.dram.rank1.pwrStateTime::PRE_PDN            0                       # Time in different power states (Tick)
system.mem_ctrls.dram.rank1.pwrStateTime::ACT   1337304500                       # Time in different power states (Tick)
system.mem_ctrls.dram.rank1.pwrStateTime::ACT_PDN            0                       # Time in different power states (Tick)
system.mem_ctrls.power_state.pwrStateResidencyTicks::UNDEFINED   2365524500                       # Cumulative time (in ticks) in various power states (Tick)
system.membus.transDist::ReadResp                  78                       # Transaction distribution (Count)
system.membus.transDist::WritebackDirty          5068                       # Transaction distribution (Count)
system.membus.transDist::WritebackClean             4                       # Transaction distribution (Count)
system.membus.transDist::CleanEvict                66                       # Transaction distribution (Count)
system.membus.transDist::ReadExReq               5062                       # Transaction distribution (Count)
system.membus.transDist::ReadExResp              5062                       # Transaction distribution (Count)
system.membus.transDist::ReadCleanReq               6                       # Transaction distribution (Count)
system.membus.transDist::ReadSharedReq             69                       # Transaction distribution (Count)
system.membus.pktCount_system.cpu.icache.mem_side_port::system.mem_ctrls.port           16                       # Packet count per connected requestor and responder (Count)
system.membus.pktCount_system.cpu.icache.mem_side_port::total           16                       # Packet count per connected requestor and responder (Count)
system.membus.pktCount_system.cpu.dcache.mem_side_port::system.mem_ctrls.port        15399                       # Packet count per connected requestor and responder (Count)
system.membus.pktCount_system.cpu.dcache.mem_side_port::total        15399                       # Packet count per connected requestor and responder (Count)
system.membus.pktCount::total                   15415                       # Packet count per connected requestor and responder (Count)
system.membus.pktSize_system.cpu.icache.mem_side_port::system.mem_ctrls.port          640                       # Cumulative packet size per connected requestor and responder (Byte)
system.membus.pktSize_system.cpu.icache.mem_side_port::total          640                       # Cumulative packet size per connected requestor and responder (Byte)
system.membus.pktSize_system.cpu.dcache.mem_side_port::system.mem_ctrls.port       652928                       # Cumulative packet size per connected requestor and responder (Byte)
system.membus.pktSize_system.cpu.dcache.mem_side_port::total       652928                       # Cumulative packet size per connected requestor and responder (Byte)
system.membus.pktSize::total                   653568                       # Cumulative packet size per connected requestor and responder (Byte)
system.membus.snoops                                0                       # Total snoops (Count)
system.membus.snoopTraffic                          0                       # Total snoop traffic (Byte)
system.membus.snoopFanout::samples               5137                       # Request fanout histogram (Count)
system.membus.snoopFanout::mean              0.000389                       # Request fanout histogram (Count)
system.membus.snoopFanout::stdev             0.019730                       # Request fanout histogram (Count)
system.membus.snoopFanout::underflows               0      0.00%      0.00% # Request fanout histogram (Count)
system.membus.snoopFanout::0                     5135     99.96%     99.96% # Request fanout histogram (Count)
system.membus.snoopFanout::1                        2      0.04%    100.00% # Request fanout histogram (Count)
system.membus.snoopFanout::2                        0      0.00%    100.00% # Request fanout histogram (Count)
system.membus.snoopFanout::3                        0      0.00%    100.00% # Request fanout histogram (Count)
system.membus.snoopFanout::4                        0      0.00%    100.00% # Request fanout histogram (Count)
system.membus.snoopFanout::overflows                0      0.00%    100.00% # Request fanout histogram (Count)
system.membus.snoopFanout::min_value                0                       # Request fanout histogram (Count)
system.membus.snoopFanout::max_value                1                       # Request fanout histogram (Count)
system.membus.snoopFanout::total                 5137                       # Request fanout histogram (Count)
system.membus.power_state.pwrStateResidencyTicks::UNDEFINED   2365524500                       # Cumulative time (in ticks) in various power states (Tick)
system.membus.reqLayer2.occupancy            31318500                       # Layer occupancy (ticks) (Tick)
system.membus.reqLayer2.utilization               0.0                       # Layer utilization (Ratio)
system.membus.respLayer1.occupancy              32750                       # Layer occupancy (ticks) (Tick)
system.membus.respLayer1.utilization              0.0                       # Layer utilization (Ratio)
system.membus.respLayer2.occupancy           27046500                       # Layer occupancy (ticks) (Tick)
system.membus.respLayer2.utilization              0.0                       # Layer utilization (Ratio)
system.membus.snoop_filter.totRequests          10275                       # Total number of requests made to the snoop filter. (Count)
system.membus.snoop_filter.hitSingleRequests         5138                       # Number of requests hitting in the snoop filter with a single holder of the requested data. (Count)
system.membus.snoop_filter.hitMultiRequests            2                       # Number of requests hitting in the snoop filter with multiple (>1) holders of the requested data. (Count)
system.membus.snoop_filter.totSnoops                0                       # Total number of snoops made to the snoop filter. (Count)
system.membus.snoop_filter.hitSingleSnoops            0                       # Number of snoops hitting in the snoop filter with a single holder of the requested data. (Count)
system.membus.snoop_filter.hitMultiSnoops            0                       # Number of snoops hitting in the snoop filter with multiple (>1) holders of the requested data. (Count)
system.voltage_domain.voltage                       1                       # Voltage in Volts (Volt)
system.workload.inst.arm                            0                       # number of arm instructions executed (Count)
system.workload.inst.quiesce                        0                       # number of quiesce instructions executed (Count)
system.cpu.loadValPred.constant_verification_unit.constLoadHits            0                       # Number of loads marked constant that hit in the CVU CAM (Unspecified)
system.cpu.loadValPred.constant_verification_unit.constLoadMisses            0                       # Number of loads marked constant that missed in the CVU CAM (Unspecified)
system.cpu.loadValPred.constant_verification_unit.numCAMReplacements            0                       # Number of CVU CAM entries replaced (Unspecified)
system.cpu.loadValPred.constant_verification_unit.numLoadAccesses            0                       # Number of loads marked constant which accessed the CVU (Unspecified)
system.cpu.loadValPred.constant_verification_unit.numStoreAccesses      1398512                       # Number of store instructions which accessed the CVU (Unspecified)
system.cpu.loadValPred.constant_verification_unit.numStoreHits            0                       # Number of stores that hit in the CVU CAM (Unspecified)
system.cpu.loadValPred.constant_verification_unit.numStoreMisses      1398512                       # Number of stores that missed in the CVU CAM (Unspecified)
system.cpu.loadValPred.numConstLoads                0                       # Number of loads classified as constant (Unspecified)
system.cpu.loadValPred.numConstLoadsCorrect            0                       # Number of constant loads correctly predicted (Unspecified)
system.cpu.loadValPred.numConstLoadsMispredicted            0                       # Number of constant loads incorrectly predicted (Unspecified)
system.cpu.loadValPred.numConstValOne               0                       # Number of constant loads with value 1 (Unspecified)
system.cpu.loadValPred.numConstValZero              0                       # Number of constant loads with value 0 (Unspecified)
system.cpu.loadValPred.numPredictableLoads            0                       # Number of loads classified as predictable (Unspecified)
system.cpu.loadValPred.numPredictableLoadsCorrect            0                       # Number of loads correctly classified as predictable (Unspecified)
system.cpu.loadValPred.numPredictableLoadsIncorrect            0                       # Number of loads incorrectly classified as predictable (Unspecified)
system.cpu.loadValPred.totalLoads             2728135                       # Total loads processed by the Load value predictor (Unspecified)

---------- End Simulation Statistics   ----------
