---------- Begin Simulation Statistics ----------
simSeconds                                   0.002373                       # Number of seconds simulated (Second)
simTicks                                   2372586000                       # Number of ticks simulated (Tick)
finalTick                                  3255495000                       # Number of ticks from beginning of simulation (restored from checkpoints and never reset) (Tick)
simFreq                                  1000000000000                       # The number of ticks per simulated second ((Tick/Second))
hostSeconds                                     93.44                       # Real time elapsed on the host (Second)
hostTickRate                                 25391381                       # The number of ticks simulated per host second (ticks/s) ((Tick/Second))
hostMemory                                    8722524                       # Number of bytes of host memory used (Byte)
simInsts                                     10000001                       # Number of instructions simulated (Count)
simOps                                       18302652                       # Number of ops (including micro ops) simulated (Count)
hostInstRate                                   107020                       # Simulator instruction rate (inst/s) ((Count/Second))
hostOpRate                                     195874                       # Simulator op (including micro ops) rate (op/s) ((Count/Second))
system.clk_domain.clock                          1000                       # Clock period in ticks (Tick)
system.cpu.numCycles                          4745172                       # Number of cpu cycles simulated (Cycle)
system.cpu.numWorkItemsStarted                      0                       # Number of work items this cpu started (Count)
system.cpu.numWorkItemsCompleted                    0                       # Number of work items this cpu completed (Count)
system.cpu.instsAdded                        16424726                       # Number of instructions added to the IQ (excludes non-spec) (Count)
system.cpu.nonSpecInstsAdded                       75                       # Number of non-speculative instructions added to the IQ (Count)
system.cpu.instsIssued                       16305998                       # Number of instructions issued (Count)
system.cpu.squashedInstsIssued                     46                       # Number of squashed instructions issued (Count)
system.cpu.squashedInstsExamined               369290                       # Number of squashed instructions iterated over during squash; mainly for profiling (Count)
system.cpu.squashedOperandsExamined            635418                       # Number of squashed operands that are examined and possibly removed from graph (Count)
system.cpu.squashedNonSpecRemoved                  48                       # Number of squashed non-spec instructions that were removed (Count)
system.cpu.numIssuedDist::samples             4743390                       # Number of insts issued each cycle (Count)
system.cpu.numIssuedDist::mean               3.437625                       # Number of insts issued each cycle (Count)
system.cpu.numIssuedDist::stdev              1.869781                       # Number of insts issued each cycle (Count)
system.cpu.numIssuedDist::underflows                0      0.00%      0.00% # Number of insts issued each cycle (Count)
system.cpu.numIssuedDist::0                    104067      2.19%      2.19% # Number of insts issued each cycle (Count)
system.cpu.numIssuedDist::1                    933375     19.68%     21.87% # Number of insts issued each cycle (Count)
system.cpu.numIssuedDist::2                    573646     12.09%     33.96% # Number of insts issued each cycle (Count)
system.cpu.numIssuedDist::3                    689966     14.55%     48.51% # Number of insts issued each cycle (Count)
system.cpu.numIssuedDist::4                    956597     20.17%     68.68% # Number of insts issued each cycle (Count)
system.cpu.numIssuedDist::5                    968372     20.42%     89.09% # Number of insts issued each cycle (Count)
system.cpu.numIssuedDist::6                    174731      3.68%     92.78% # Number of insts issued each cycle (Count)
system.cpu.numIssuedDist::7                    302289      6.37%     99.15% # Number of insts issued each cycle (Count)
system.cpu.numIssuedDist::8                     40347      0.85%    100.00% # Number of insts issued each cycle (Count)
system.cpu.numIssuedDist::overflows                 0      0.00%    100.00% # Number of insts issued each cycle (Count)
system.cpu.numIssuedDist::min_value                 0                       # Number of insts issued each cycle (Count)
system.cpu.numIssuedDist::max_value                 8                       # Number of insts issued each cycle (Count)
system.cpu.numIssuedDist::total               4743390                       # Number of insts issued each cycle (Count)
system.cpu.statFuBusy::No_OpClass                   0      0.00%      0.00% # attempts to use FU when none available (Count)
system.cpu.statFuBusy::IntAlu                    6452      2.95%      2.95% # attempts to use FU when none available (Count)
system.cpu.statFuBusy::IntMult                      0      0.00%      2.95% # attempts to use FU when none available (Count)
system.cpu.statFuBusy::IntDiv                       0      0.00%      2.95% # attempts to use FU when none available (Count)
system.cpu.statFuBusy::FloatAdd                     0      0.00%      2.95% # attempts to use FU when none available (Count)
system.cpu.statFuBusy::FloatCmp                     0      0.00%      2.95% # attempts to use FU when none available (Count)
system.cpu.statFuBusy::FloatCvt                     0      0.00%      2.95% # attempts to use FU when none available (Count)
system.cpu.statFuBusy::FloatMult                    0      0.00%      2.95% # attempts to use FU when none available (Count)
system.cpu.statFuBusy::FloatMultAcc                 0      0.00%      2.95% # attempts to use FU when none available (Count)
system.cpu.statFuBusy::FloatDiv                     0      0.00%      2.95% # attempts to use FU when none available (Count)
system.cpu.statFuBusy::FloatMisc                    0      0.00%      2.95% # attempts to use FU when none available (Count)
system.cpu.statFuBusy::FloatSqrt                    0      0.00%      2.95% # attempts to use FU when none available (Count)
system.cpu.statFuBusy::SimdAdd                      0      0.00%      2.95% # attempts to use FU when none available (Count)
system.cpu.statFuBusy::SimdAddAcc                   0      0.00%      2.95% # attempts to use FU when none available (Count)
system.cpu.statFuBusy::SimdAlu                      0      0.00%      2.95% # attempts to use FU when none available (Count)
system.cpu.statFuBusy::SimdCmp                      0      0.00%      2.95% # attempts to use FU when none available (Count)
system.cpu.statFuBusy::SimdCvt                      0      0.00%      2.95% # attempts to use FU when none available (Count)
system.cpu.statFuBusy::SimdMisc                     0      0.00%      2.95% # attempts to use FU when none available (Count)
system.cpu.statFuBusy::SimdMult                     0      0.00%      2.95% # attempts to use FU when none available (Count)
system.cpu.statFuBusy::SimdMultAcc                  0      0.00%      2.95% # attempts to use FU when none available (Count)
system.cpu.statFuBusy::SimdShift                    0      0.00%      2.95% # attempts to use FU when none available (Count)
system.cpu.statFuBusy::SimdShiftAcc                 0      0.00%      2.95% # attempts to use FU when none available (Count)
system.cpu.statFuBusy::SimdDiv                      0      0.00%      2.95% # attempts to use FU when none available (Count)
system.cpu.statFuBusy::SimdSqrt                     0      0.00%      2.95% # attempts to use FU when none available (Count)
system.cpu.statFuBusy::SimdFloatAdd                 0      0.00%      2.95% # attempts to use FU when none available (Count)
system.cpu.statFuBusy::SimdFloatAlu                 0      0.00%      2.95% # attempts to use FU when none available (Count)
system.cpu.statFuBusy::SimdFloatCmp                 0      0.00%      2.95% # attempts to use FU when none available (Count)
system.cpu.statFuBusy::SimdFloatCvt                 0      0.00%      2.95% # attempts to use FU when none available (Count)
system.cpu.statFuBusy::SimdFloatDiv                 0      0.00%      2.95% # attempts to use FU when none available (Count)
system.cpu.statFuBusy::SimdFloatMisc                0      0.00%      2.95% # attempts to use FU when none available (Count)
system.cpu.statFuBusy::SimdFloatMult                0      0.00%      2.95% # attempts to use FU when none available (Count)
system.cpu.statFuBusy::SimdFloatMultAcc             0      0.00%      2.95% # attempts to use FU when none available (Count)
system.cpu.statFuBusy::SimdFloatSqrt                0      0.00%      2.95% # attempts to use FU when none available (Count)
system.cpu.statFuBusy::SimdReduceAdd                0      0.00%      2.95% # attempts to use FU when none available (Count)
system.cpu.statFuBusy::SimdReduceAlu                0      0.00%      2.95% # attempts to use FU when none available (Count)
system.cpu.statFuBusy::SimdReduceCmp                0      0.00%      2.95% # attempts to use FU when none available (Count)
system.cpu.statFuBusy::SimdFloatReduceAdd            0      0.00%      2.95% # attempts to use FU when none available (Count)
system.cpu.statFuBusy::SimdFloatReduceCmp            0      0.00%      2.95% # attempts to use FU when none available (Count)
system.cpu.statFuBusy::SimdAes                      0      0.00%      2.95% # attempts to use FU when none available (Count)
system.cpu.statFuBusy::SimdAesMix                   0      0.00%      2.95% # attempts to use FU when none available (Count)
system.cpu.statFuBusy::SimdSha1Hash                 0      0.00%      2.95% # attempts to use FU when none available (Count)
system.cpu.statFuBusy::SimdSha1Hash2                0      0.00%      2.95% # attempts to use FU when none available (Count)
system.cpu.statFuBusy::SimdSha256Hash               0      0.00%      2.95% # attempts to use FU when none available (Count)
system.cpu.statFuBusy::SimdSha256Hash2              0      0.00%      2.95% # attempts to use FU when none available (Count)
system.cpu.statFuBusy::SimdShaSigma2                0      0.00%      2.95% # attempts to use FU when none available (Count)
system.cpu.statFuBusy::SimdShaSigma3                0      0.00%      2.95% # attempts to use FU when none available (Count)
system.cpu.statFuBusy::SimdPredAlu                  0      0.00%      2.95% # attempts to use FU when none available (Count)
system.cpu.statFuBusy::MemRead                 198998     90.84%     93.78% # attempts to use FU when none available (Count)
system.cpu.statFuBusy::MemWrite                 11367      5.19%     98.97% # attempts to use FU when none available (Count)
system.cpu.statFuBusy::FloatMemRead              2254      1.03%    100.00% # attempts to use FU when none available (Count)
system.cpu.statFuBusy::FloatMemWrite                0      0.00%    100.00% # attempts to use FU when none available (Count)
system.cpu.statFuBusy::IprAccess                    0      0.00%    100.00% # attempts to use FU when none available (Count)
system.cpu.statFuBusy::InstPrefetch                 0      0.00%    100.00% # attempts to use FU when none available (Count)
system.cpu.statIssuedInstType_0::No_OpClass          116      0.00%      0.00% # Number of instructions issued per FU type, per thread (Count)
system.cpu.statIssuedInstType_0::IntAlu      10771252     66.06%     66.06% # Number of instructions issued per FU type, per thread (Count)
system.cpu.statIssuedInstType_0::IntMult          120      0.00%     66.06% # Number of instructions issued per FU type, per thread (Count)
system.cpu.statIssuedInstType_0::IntDiv            48      0.00%     66.06% # Number of instructions issued per FU type, per thread (Count)
system.cpu.statIssuedInstType_0::FloatAdd       247888      1.52%     67.58% # Number of instructions issued per FU type, per thread (Count)
system.cpu.statIssuedInstType_0::FloatCmp            0      0.00%     67.58% # Number of instructions issued per FU type, per thread (Count)
system.cpu.statIssuedInstType_0::FloatCvt           64      0.00%     67.58% # Number of instructions issued per FU type, per thread (Count)
system.cpu.statIssuedInstType_0::FloatMult            0      0.00%     67.58% # Number of instructions issued per FU type, per thread (Count)
system.cpu.statIssuedInstType_0::FloatMultAcc            0      0.00%     67.58% # Number of instructions issued per FU type, per thread (Count)
system.cpu.statIssuedInstType_0::FloatDiv            0      0.00%     67.58% # Number of instructions issued per FU type, per thread (Count)
system.cpu.statIssuedInstType_0::FloatMisc            0      0.00%     67.58% # Number of instructions issued per FU type, per thread (Count)
system.cpu.statIssuedInstType_0::FloatSqrt            0      0.00%     67.58% # Number of instructions issued per FU type, per thread (Count)
system.cpu.statIssuedInstType_0::SimdAdd            0      0.00%     67.58% # Number of instructions issued per FU type, per thread (Count)
system.cpu.statIssuedInstType_0::SimdAddAcc            0      0.00%     67.58% # Number of instructions issued per FU type, per thread (Count)
system.cpu.statIssuedInstType_0::SimdAlu            0      0.00%     67.58% # Number of instructions issued per FU type, per thread (Count)
system.cpu.statIssuedInstType_0::SimdCmp            0      0.00%     67.58% # Number of instructions issued per FU type, per thread (Count)
system.cpu.statIssuedInstType_0::SimdCvt            0      0.00%     67.58% # Number of instructions issued per FU type, per thread (Count)
system.cpu.statIssuedInstType_0::SimdMisc        40031      0.25%     67.82% # Number of instructions issued per FU type, per thread (Count)
system.cpu.statIssuedInstType_0::SimdMult            0      0.00%     67.82% # Number of instructions issued per FU type, per thread (Count)
system.cpu.statIssuedInstType_0::SimdMultAcc            0      0.00%     67.82% # Number of instructions issued per FU type, per thread (Count)
system.cpu.statIssuedInstType_0::SimdShift            0      0.00%     67.82% # Number of instructions issued per FU type, per thread (Count)
system.cpu.statIssuedInstType_0::SimdShiftAcc            0      0.00%     67.82% # Number of instructions issued per FU type, per thread (Count)
system.cpu.statIssuedInstType_0::SimdDiv            0      0.00%     67.82% # Number of instructions issued per FU type, per thread (Count)
system.cpu.statIssuedInstType_0::SimdSqrt            0      0.00%     67.82% # Number of instructions issued per FU type, per thread (Count)
system.cpu.statIssuedInstType_0::SimdFloatAdd            0      0.00%     67.82% # Number of instructions issued per FU type, per thread (Count)
system.cpu.statIssuedInstType_0::SimdFloatAlu            0      0.00%     67.82% # Number of instructions issued per FU type, per thread (Count)
system.cpu.statIssuedInstType_0::SimdFloatCmp            0      0.00%     67.82% # Number of instructions issued per FU type, per thread (Count)
system.cpu.statIssuedInstType_0::SimdFloatCvt       263823      1.62%     69.44% # Number of instructions issued per FU type, per thread (Count)
system.cpu.statIssuedInstType_0::SimdFloatDiv        20025      0.12%     69.57% # Number of instructions issued per FU type, per thread (Count)
system.cpu.statIssuedInstType_0::SimdFloatMisc            0      0.00%     69.57% # Number of instructions issued per FU type, per thread (Count)
system.cpu.statIssuedInstType_0::SimdFloatMult            0      0.00%     69.57% # Number of instructions issued per FU type, per thread (Count)
system.cpu.statIssuedInstType_0::SimdFloatMultAcc            0      0.00%     69.57% # Number of instructions issued per FU type, per thread (Count)
system.cpu.statIssuedInstType_0::SimdFloatSqrt            0      0.00%     69.57% # Number of instructions issued per FU type, per thread (Count)
system.cpu.statIssuedInstType_0::SimdReduceAdd            0      0.00%     69.57% # Number of instructions issued per FU type, per thread (Count)
system.cpu.statIssuedInstType_0::SimdReduceAlu            0      0.00%     69.57% # Number of instructions issued per FU type, per thread (Count)
system.cpu.statIssuedInstType_0::SimdReduceCmp            0      0.00%     69.57% # Number of instructions issued per FU type, per thread (Count)
system.cpu.statIssuedInstType_0::SimdFloatReduceAdd            0      0.00%     69.57% # Number of instructions issued per FU type, per thread (Count)
system.cpu.statIssuedInstType_0::SimdFloatReduceCmp            0      0.00%     69.57% # Number of instructions issued per FU type, per thread (Count)
system.cpu.statIssuedInstType_0::SimdAes            0      0.00%     69.57% # Number of instructions issued per FU type, per thread (Count)
system.cpu.statIssuedInstType_0::SimdAesMix            0      0.00%     69.57% # Number of instructions issued per FU type, per thread (Count)
system.cpu.statIssuedInstType_0::SimdSha1Hash            0      0.00%     69.57% # Number of instructions issued per FU type, per thread (Count)
system.cpu.statIssuedInstType_0::SimdSha1Hash2            0      0.00%     69.57% # Number of instructions issued per FU type, per thread (Count)
system.cpu.statIssuedInstType_0::SimdSha256Hash            0      0.00%     69.57% # Number of instructions issued per FU type, per thread (Count)
system.cpu.statIssuedInstType_0::SimdSha256Hash2            0      0.00%     69.57% # Number of instructions issued per FU type, per thread (Count)
system.cpu.statIssuedInstType_0::SimdShaSigma2            0      0.00%     69.57% # Number of instructions issued per FU type, per thread (Count)
system.cpu.statIssuedInstType_0::SimdShaSigma3            0      0.00%     69.57% # Number of instructions issued per FU type, per thread (Count)
system.cpu.statIssuedInstType_0::SimdPredAlu            0      0.00%     69.57% # Number of instructions issued per FU type, per thread (Count)
system.cpu.statIssuedInstType_0::MemRead      3056963     18.75%     88.31% # Number of instructions issued per FU type, per thread (Count)
system.cpu.statIssuedInstType_0::MemWrite      1433603      8.79%     97.10% # Number of instructions issued per FU type, per thread (Count)
system.cpu.statIssuedInstType_0::FloatMemRead       471945      2.89%    100.00% # Number of instructions issued per FU type, per thread (Count)
system.cpu.statIssuedInstType_0::FloatMemWrite          120      0.00%    100.00% # Number of instructions issued per FU type, per thread (Count)
system.cpu.statIssuedInstType_0::IprAccess            0      0.00%    100.00% # Number of instructions issued per FU type, per thread (Count)
system.cpu.statIssuedInstType_0::InstPrefetch            0      0.00%    100.00% # Number of instructions issued per FU type, per thread (Count)
system.cpu.statIssuedInstType_0::total       16305998                       # Number of instructions issued per FU type, per thread (Count)
system.cpu.issueRate                         3.436334                       # Inst issue rate ((Count/Cycle))
system.cpu.fuBusy                              219071                       # FU busy when requested (Count)
system.cpu.fuBusyRate                        0.013435                       # FU busy rate (busy events/executed inst) ((Count/Count))
system.cpu.intInstQueueReads                 35484432                       # Number of integer instruction queue reads (Count)
system.cpu.intInstQueueWrites                15724697                       # Number of integer instruction queue writes (Count)
system.cpu.intInstQueueWakeupAccesses        15238863                       # Number of integer instruction queue wakeup accesses (Count)
system.cpu.fpInstQueueReads                   2090072                       # Number of floating instruction queue reads (Count)
system.cpu.fpInstQueueWrites                  1069478                       # Number of floating instruction queue writes (Count)
system.cpu.fpInstQueueWakeupAccesses          1041661                       # Number of floating instruction queue wakeup accesses (Count)
system.cpu.vecInstQueueReads                        0                       # Number of vector instruction queue reads (Count)
system.cpu.vecInstQueueWrites                       0                       # Number of vector instruction queue writes (Count)
system.cpu.vecInstQueueWakeupAccesses               0                       # Number of vector instruction queue wakeup accesses (Count)
system.cpu.intAluAccesses                    15478803                       # Number of integer alu accesses (Count)
system.cpu.fpAluAccesses                      1046150                       # Number of floating point alu accesses (Count)
system.cpu.vecAluAccesses                           0                       # Number of vector alu accesses (Count)
system.cpu.numInsts                          16287516                       # Number of executed instructions (Count)
system.cpu.numLoadInsts                       3527826                       # Number of load instructions executed (Count)
system.cpu.numSquashedInsts                     18483                       # Number of squashed instructions skipped in execute (Count)
system.cpu.numSwp                                   0                       # Number of swp insts executed (Count)
system.cpu.numNop                                   0                       # Number of nop insts executed (Count)
system.cpu.numRefs                            4958598                       # Number of memory reference insts executed (Count)
system.cpu.numBranches                        1588436                       # Number of branches executed (Count)
system.cpu.numStoreInsts                      1430772                       # Number of stores executed (Count)
system.cpu.numRate                           3.432440                       # Inst execution rate ((Count/Cycle))
system.cpu.timesIdled                              18                       # Number of times that the entire CPU went into an idle state and unscheduled itself (Count)
system.cpu.idleCycles                            1782                       # Total number of cycles that the CPU has spent unscheduled due to idling (Cycle)
system.cpu.committedInsts                     8654526                       # Number of Instructions Simulated (Count)
system.cpu.committedOps                      16055398                       # Number of Ops (including micro ops) Simulated (Count)
system.cpu.cpi                               0.548288                       # CPI: Cycles Per Instruction ((Cycle/Count))
system.cpu.totalCpi                          0.548288                       # CPI: Total CPI of All Threads ((Cycle/Count))
system.cpu.ipc                               1.823859                       # IPC: Instructions Per Cycle ((Count/Cycle))
system.cpu.totalIpc                          1.823859                       # IPC: Total IPC of All Threads ((Count/Cycle))
system.cpu.intRegfileReads                   25273380                       # Number of integer regfile reads (Count)
system.cpu.intRegfileWrites                  13522705                       # Number of integer regfile writes (Count)
system.cpu.fpRegfileReads                     1571431                       # Number of floating regfile reads (Count)
system.cpu.fpRegfileWrites                    1269491                       # Number of floating regfile writes (Count)
system.cpu.ccRegfileReads                     6535678                       # number of cc regfile reads (Count)
system.cpu.ccRegfileWrites                    4680678                       # number of cc regfile writes (Count)
system.cpu.miscRegfileReads                   8233390                       # number of misc regfile reads (Count)
system.cpu.miscRegfileWrites                       27                       # number of misc regfile writes (Count)
system.cpu.MemDepUnit__0.insertedLoads        3551551                       # Number of loads inserted to the mem dependence unit. (Count)
system.cpu.MemDepUnit__0.insertedStores       1446074                       # Number of stores inserted to the mem dependence unit. (Count)
system.cpu.MemDepUnit__0.conflictingLoads      1656520                       # Number of conflicting loads. (Count)
system.cpu.MemDepUnit__0.conflictingStores       396684                       # Number of conflicting stores. (Count)
system.cpu.MemDepUnit__1.insertedLoads              0                       # Number of loads inserted to the mem dependence unit. (Count)
system.cpu.MemDepUnit__1.insertedStores             0                       # Number of stores inserted to the mem dependence unit. (Count)
system.cpu.MemDepUnit__1.conflictingLoads            0                       # Number of conflicting loads. (Count)
system.cpu.MemDepUnit__1.conflictingStores            0                       # Number of conflicting stores. (Count)
system.cpu.MemDepUnit__2.insertedLoads              0                       # Number of loads inserted to the mem dependence unit. (Count)
system.cpu.MemDepUnit__2.insertedStores             0                       # Number of stores inserted to the mem dependence unit. (Count)
system.cpu.MemDepUnit__2.conflictingLoads            0                       # Number of conflicting loads. (Count)
system.cpu.MemDepUnit__2.conflictingStores            0                       # Number of conflicting stores. (Count)
system.cpu.MemDepUnit__3.insertedLoads              0                       # Number of loads inserted to the mem dependence unit. (Count)
system.cpu.MemDepUnit__3.insertedStores             0                       # Number of stores inserted to the mem dependence unit. (Count)
system.cpu.MemDepUnit__3.conflictingLoads            0                       # Number of conflicting loads. (Count)
system.cpu.MemDepUnit__3.conflictingStores            0                       # Number of conflicting stores. (Count)
system.cpu.branchPred.lookups                 1621815                       # Number of BP lookups (Count)
system.cpu.branchPred.condPredicted           1045763                       # Number of conditional branches predicted (Count)
system.cpu.branchPred.condIncorrect              3039                       # Number of conditional branches incorrect (Count)
system.cpu.branchPred.BTBLookups               779051                       # Number of BTB lookups (Count)
system.cpu.branchPred.BTBHits                  778996                       # Number of BTB hits (Count)
system.cpu.branchPred.BTBHitRatio            0.999929                       # BTB Hit Ratio (Ratio)
system.cpu.branchPred.RASUsed                  266066                       # Number of times the RAS was used to get a target. (Count)
system.cpu.branchPred.RASIncorrect                  0                       # Number of incorrect RAS predictions. (Count)
system.cpu.branchPred.indirectLookups           20672                       # Number of indirect predictor lookups. (Count)
system.cpu.branchPred.indirectHits              20427                       # Number of indirect target hits. (Count)
system.cpu.branchPred.indirectMisses              245                       # Number of indirect misses. (Count)
system.cpu.branchPred.indirectMispredicted           16                       # Number of mispredicted indirect branches. (Count)
system.cpu.commit.commitSquashedInsts          369256                       # The number of squashed insts skipped by commit (Count)
system.cpu.commit.commitNonSpecStalls              27                       # The number of times commit has been forced to stall to communicate backwards (Count)
system.cpu.commit.branchMispredicts              7464                       # The number of times a branch was mispredicted (Count)
system.cpu.commit.numCommittedDist::samples      4692536                       # Number of insts commited each cycle (Count)
system.cpu.commit.numCommittedDist::mean     3.421476                       # Number of insts commited each cycle (Count)
system.cpu.commit.numCommittedDist::stdev     3.148325                       # Number of insts commited each cycle (Count)
system.cpu.commit.numCommittedDist::underflows            0      0.00%      0.00% # Number of insts commited each cycle (Count)
system.cpu.commit.numCommittedDist::0          308395      6.57%      6.57% # Number of insts commited each cycle (Count)
system.cpu.commit.numCommittedDist::1         1908490     40.67%     47.24% # Number of insts commited each cycle (Count)
system.cpu.commit.numCommittedDist::2          642994     13.70%     60.95% # Number of insts commited each cycle (Count)
system.cpu.commit.numCommittedDist::3          314044      6.69%     67.64% # Number of insts commited each cycle (Count)
system.cpu.commit.numCommittedDist::4            4973      0.11%     67.74% # Number of insts commited each cycle (Count)
system.cpu.commit.numCommittedDist::5           43071      0.92%     68.66% # Number of insts commited each cycle (Count)
system.cpu.commit.numCommittedDist::6           40431      0.86%     69.52% # Number of insts commited each cycle (Count)
system.cpu.commit.numCommittedDist::7             149      0.00%     69.53% # Number of insts commited each cycle (Count)
system.cpu.commit.numCommittedDist::8         1429989     30.47%    100.00% # Number of insts commited each cycle (Count)
system.cpu.commit.numCommittedDist::overflows            0      0.00%    100.00% # Number of insts commited each cycle (Count)
system.cpu.commit.numCommittedDist::min_value            0                       # Number of insts commited each cycle (Count)
system.cpu.commit.numCommittedDist::max_value            8                       # Number of insts commited each cycle (Count)
system.cpu.commit.numCommittedDist::total      4692536                       # Number of insts commited each cycle (Count)
system.cpu.commit.instsCommitted              8654526                       # Number of instructions committed (Count)
system.cpu.commit.opsCommitted               16055398                       # Number of ops (including micro ops) committed (Count)
system.cpu.commit.memRefs                     4890431                       # Number of memory references committed (Count)
system.cpu.commit.loads                       3474814                       # Number of loads committed (Count)
system.cpu.commit.amos                              0                       # Number of atomic instructions committed (Count)
system.cpu.commit.membars                           0                       # Number of memory barriers committed (Count)
system.cpu.commit.branches                    1568851                       # Number of branches committed (Count)
system.cpu.commit.vectorInstructions                0                       # Number of committed Vector instructions. (Count)
system.cpu.commit.floating                    1026530                       # Number of committed floating point instructions. (Count)
system.cpu.commit.integer                    15532229                       # Number of committed integer instructions. (Count)
system.cpu.commit.functionCalls                257877                       # Number of function calls committed. (Count)
system.cpu.commit.committedInstType_0::No_OpClass           26      0.00%      0.00% # Class of committed instruction (Count)
system.cpu.commit.committedInstType_0::IntAlu     10601548     66.03%     66.03% # Class of committed instruction (Count)
system.cpu.commit.committedInstType_0::IntMult          120      0.00%     66.03% # Class of committed instruction (Count)
system.cpu.commit.committedInstType_0::IntDiv           45      0.00%     66.03% # Class of committed instruction (Count)
system.cpu.commit.committedInstType_0::FloatAdd       241579      1.50%     67.54% # Class of committed instruction (Count)
system.cpu.commit.committedInstType_0::FloatCmp            0      0.00%     67.54% # Class of committed instruction (Count)
system.cpu.commit.committedInstType_0::FloatCvt           48      0.00%     67.54% # Class of committed instruction (Count)
system.cpu.commit.committedInstType_0::FloatMult            0      0.00%     67.54% # Class of committed instruction (Count)
system.cpu.commit.committedInstType_0::FloatMultAcc            0      0.00%     67.54% # Class of committed instruction (Count)
system.cpu.commit.committedInstType_0::FloatDiv            0      0.00%     67.54% # Class of committed instruction (Count)
system.cpu.commit.committedInstType_0::FloatMisc            0      0.00%     67.54% # Class of committed instruction (Count)
system.cpu.commit.committedInstType_0::FloatSqrt            0      0.00%     67.54% # Class of committed instruction (Count)
system.cpu.commit.committedInstType_0::SimdAdd            0      0.00%     67.54% # Class of committed instruction (Count)
system.cpu.commit.committedInstType_0::SimdAddAcc            0      0.00%     67.54% # Class of committed instruction (Count)
system.cpu.commit.committedInstType_0::SimdAlu            0      0.00%     67.54% # Class of committed instruction (Count)
system.cpu.commit.committedInstType_0::SimdCmp            0      0.00%     67.54% # Class of committed instruction (Count)
system.cpu.commit.committedInstType_0::SimdCvt            0      0.00%     67.54% # Class of committed instruction (Count)
system.cpu.commit.committedInstType_0::SimdMisc        40023      0.25%     67.79% # Class of committed instruction (Count)
system.cpu.commit.committedInstType_0::SimdMult            0      0.00%     67.79% # Class of committed instruction (Count)
system.cpu.commit.committedInstType_0::SimdMultAcc            0      0.00%     67.79% # Class of committed instruction (Count)
system.cpu.commit.committedInstType_0::SimdShift            0      0.00%     67.79% # Class of committed instruction (Count)
system.cpu.commit.committedInstType_0::SimdShiftAcc            0      0.00%     67.79% # Class of committed instruction (Count)
system.cpu.commit.committedInstType_0::SimdDiv            0      0.00%     67.79% # Class of committed instruction (Count)
system.cpu.commit.committedInstType_0::SimdSqrt            0      0.00%     67.79% # Class of committed instruction (Count)
system.cpu.commit.committedInstType_0::SimdFloatAdd            0      0.00%     67.79% # Class of committed instruction (Count)
system.cpu.commit.committedInstType_0::SimdFloatAlu            0      0.00%     67.79% # Class of committed instruction (Count)
system.cpu.commit.committedInstType_0::SimdFloatCmp            0      0.00%     67.79% # Class of committed instruction (Count)
system.cpu.commit.committedInstType_0::SimdFloatCvt       261555      1.63%     69.42% # Class of committed instruction (Count)
system.cpu.commit.committedInstType_0::SimdFloatDiv        20023      0.12%     69.54% # Class of committed instruction (Count)
system.cpu.commit.committedInstType_0::SimdFloatMisc            0      0.00%     69.54% # Class of committed instruction (Count)
system.cpu.commit.committedInstType_0::SimdFloatMult            0      0.00%     69.54% # Class of committed instruction (Count)
system.cpu.commit.committedInstType_0::SimdFloatMultAcc            0      0.00%     69.54% # Class of committed instruction (Count)
system.cpu.commit.committedInstType_0::SimdFloatSqrt            0      0.00%     69.54% # Class of committed instruction (Count)
system.cpu.commit.committedInstType_0::SimdReduceAdd            0      0.00%     69.54% # Class of committed instruction (Count)
system.cpu.commit.committedInstType_0::SimdReduceAlu            0      0.00%     69.54% # Class of committed instruction (Count)
system.cpu.commit.committedInstType_0::SimdReduceCmp            0      0.00%     69.54% # Class of committed instruction (Count)
system.cpu.commit.committedInstType_0::SimdFloatReduceAdd            0      0.00%     69.54% # Class of committed instruction (Count)
system.cpu.commit.committedInstType_0::SimdFloatReduceCmp            0      0.00%     69.54% # Class of committed instruction (Count)
system.cpu.commit.committedInstType_0::SimdAes            0      0.00%     69.54% # Class of committed instruction (Count)
system.cpu.commit.committedInstType_0::SimdAesMix            0      0.00%     69.54% # Class of committed instruction (Count)
system.cpu.commit.committedInstType_0::SimdSha1Hash            0      0.00%     69.54% # Class of committed instruction (Count)
system.cpu.commit.committedInstType_0::SimdSha1Hash2            0      0.00%     69.54% # Class of committed instruction (Count)
system.cpu.commit.committedInstType_0::SimdSha256Hash            0      0.00%     69.54% # Class of committed instruction (Count)
system.cpu.commit.committedInstType_0::SimdSha256Hash2            0      0.00%     69.54% # Class of committed instruction (Count)
system.cpu.commit.committedInstType_0::SimdShaSigma2            0      0.00%     69.54% # Class of committed instruction (Count)
system.cpu.commit.committedInstType_0::SimdShaSigma3            0      0.00%     69.54% # Class of committed instruction (Count)
system.cpu.commit.committedInstType_0::SimdPredAlu            0      0.00%     69.54% # Class of committed instruction (Count)
system.cpu.commit.committedInstType_0::MemRead      3011631     18.76%     88.30% # Class of committed instruction (Count)
system.cpu.commit.committedInstType_0::MemWrite      1415498      8.82%     97.11% # Class of committed instruction (Count)
system.cpu.commit.committedInstType_0::FloatMemRead       463183      2.88%    100.00% # Class of committed instruction (Count)
system.cpu.commit.committedInstType_0::FloatMemWrite          119      0.00%    100.00% # Class of committed instruction (Count)
system.cpu.commit.committedInstType_0::IprAccess            0      0.00%    100.00% # Class of committed instruction (Count)
system.cpu.commit.committedInstType_0::InstPrefetch            0      0.00%    100.00% # Class of committed instruction (Count)
system.cpu.commit.committedInstType_0::total     16055398                       # Class of committed instruction (Count)
system.cpu.commit.commitEligibleSamples       1429989                       # number cycles where commit BW limit reached (Cycle)
system.cpu.dcache.demandHits::cpu.data        3469889                       # number of demand (read+write) hits (Count)
system.cpu.dcache.demandHits::total           3469889                       # number of demand (read+write) hits (Count)
system.cpu.dcache.overallHits::cpu.data       3469889                       # number of overall hits (Count)
system.cpu.dcache.overallHits::total          3469889                       # number of overall hits (Count)
system.cpu.dcache.demandMisses::cpu.data          340                       # number of demand (read+write) misses (Count)
system.cpu.dcache.demandMisses::total             340                       # number of demand (read+write) misses (Count)
system.cpu.dcache.overallMisses::cpu.data          340                       # number of overall misses (Count)
system.cpu.dcache.overallMisses::total            340                       # number of overall misses (Count)
system.cpu.dcache.demandMissLatency::cpu.data     17373000                       # number of demand (read+write) miss ticks (Tick)
system.cpu.dcache.demandMissLatency::total     17373000                       # number of demand (read+write) miss ticks (Tick)
system.cpu.dcache.overallMissLatency::cpu.data     17373000                       # number of overall miss ticks (Tick)
system.cpu.dcache.overallMissLatency::total     17373000                       # number of overall miss ticks (Tick)
system.cpu.dcache.demandAccesses::cpu.data      3470229                       # number of demand (read+write) accesses (Count)
system.cpu.dcache.demandAccesses::total       3470229                       # number of demand (read+write) accesses (Count)
system.cpu.dcache.overallAccesses::cpu.data      3470229                       # number of overall (read+write) accesses (Count)
system.cpu.dcache.overallAccesses::total      3470229                       # number of overall (read+write) accesses (Count)
system.cpu.dcache.demandMissRate::cpu.data     0.000098                       # miss rate for demand accesses (Ratio)
system.cpu.dcache.demandMissRate::total      0.000098                       # miss rate for demand accesses (Ratio)
system.cpu.dcache.overallMissRate::cpu.data     0.000098                       # miss rate for overall accesses (Ratio)
system.cpu.dcache.overallMissRate::total     0.000098                       # miss rate for overall accesses (Ratio)
system.cpu.dcache.demandAvgMissLatency::cpu.data 51097.058824                       # average overall miss latency in ticks ((Tick/Count))
system.cpu.dcache.demandAvgMissLatency::total 51097.058824                       # average overall miss latency in ticks ((Tick/Count))
system.cpu.dcache.overallAvgMissLatency::cpu.data 51097.058824                       # average overall miss latency ((Tick/Count))
system.cpu.dcache.overallAvgMissLatency::total 51097.058824                       # average overall miss latency ((Tick/Count))
system.cpu.dcache.blockedCycles::no_mshrs          153                       # number of cycles access was blocked (Cycle)
system.cpu.dcache.blockedCycles::no_targets          256                       # number of cycles access was blocked (Cycle)
system.cpu.dcache.blockedCauses::no_mshrs            1                       # number of times access was blocked (Count)
system.cpu.dcache.blockedCauses::no_targets            4                       # number of times access was blocked (Count)
system.cpu.dcache.avgBlocked::no_mshrs            153                       # average number of cycles each access was blocked ((Cycle/Count))
system.cpu.dcache.avgBlocked::no_targets           64                       # average number of cycles each access was blocked ((Cycle/Count))
system.cpu.dcache.writebacks::writebacks          161                       # number of writebacks (Count)
system.cpu.dcache.writebacks::total               161                       # number of writebacks (Count)
system.cpu.dcache.demandMshrHits::cpu.data          114                       # number of demand (read+write) MSHR hits (Count)
system.cpu.dcache.demandMshrHits::total           114                       # number of demand (read+write) MSHR hits (Count)
system.cpu.dcache.overallMshrHits::cpu.data          114                       # number of overall MSHR hits (Count)
system.cpu.dcache.overallMshrHits::total          114                       # number of overall MSHR hits (Count)
system.cpu.dcache.demandMshrMisses::cpu.data          226                       # number of demand (read+write) MSHR misses (Count)
system.cpu.dcache.demandMshrMisses::total          226                       # number of demand (read+write) MSHR misses (Count)
system.cpu.dcache.overallMshrMisses::cpu.data          226                       # number of overall MSHR misses (Count)
system.cpu.dcache.overallMshrMisses::total          226                       # number of overall MSHR misses (Count)
system.cpu.dcache.demandMshrMissLatency::cpu.data     10920000                       # number of demand (read+write) MSHR miss ticks (Tick)
system.cpu.dcache.demandMshrMissLatency::total     10920000                       # number of demand (read+write) MSHR miss ticks (Tick)
system.cpu.dcache.overallMshrMissLatency::cpu.data     10920000                       # number of overall MSHR miss ticks (Tick)
system.cpu.dcache.overallMshrMissLatency::total     10920000                       # number of overall MSHR miss ticks (Tick)
system.cpu.dcache.demandMshrMissRate::cpu.data     0.000065                       # mshr miss ratio for demand accesses (Ratio)
system.cpu.dcache.demandMshrMissRate::total     0.000065                       # mshr miss ratio for demand accesses (Ratio)
system.cpu.dcache.overallMshrMissRate::cpu.data     0.000065                       # mshr miss ratio for overall accesses (Ratio)
system.cpu.dcache.overallMshrMissRate::total     0.000065                       # mshr miss ratio for overall accesses (Ratio)
system.cpu.dcache.demandAvgMshrMissLatency::cpu.data 48318.584071                       # average overall mshr miss latency ((Tick/Count))
system.cpu.dcache.demandAvgMshrMissLatency::total 48318.584071                       # average overall mshr miss latency ((Tick/Count))
system.cpu.dcache.overallAvgMshrMissLatency::cpu.data 48318.584071                       # average overall mshr miss latency ((Tick/Count))
system.cpu.dcache.overallAvgMshrMissLatency::total 48318.584071                       # average overall mshr miss latency ((Tick/Count))
system.cpu.dcache.replacements                    226                       # number of replacements (Count)
system.cpu.dcache.ReadReq.hits::cpu.data      2054432                       # number of ReadReq hits (Count)
system.cpu.dcache.ReadReq.hits::total         2054432                       # number of ReadReq hits (Count)
system.cpu.dcache.ReadReq.misses::cpu.data          182                       # number of ReadReq misses (Count)
system.cpu.dcache.ReadReq.misses::total           182                       # number of ReadReq misses (Count)
system.cpu.dcache.ReadReq.missLatency::cpu.data     11291500                       # number of ReadReq miss ticks (Tick)
system.cpu.dcache.ReadReq.missLatency::total     11291500                       # number of ReadReq miss ticks (Tick)
system.cpu.dcache.ReadReq.accesses::cpu.data      2054614                       # number of ReadReq accesses(hits+misses) (Count)
system.cpu.dcache.ReadReq.accesses::total      2054614                       # number of ReadReq accesses(hits+misses) (Count)
system.cpu.dcache.ReadReq.missRate::cpu.data     0.000089                       # miss rate for ReadReq accesses (Ratio)
system.cpu.dcache.ReadReq.missRate::total     0.000089                       # miss rate for ReadReq accesses (Ratio)
system.cpu.dcache.ReadReq.avgMissLatency::cpu.data 62041.208791                       # average ReadReq miss latency ((Tick/Count))
system.cpu.dcache.ReadReq.avgMissLatency::total 62041.208791                       # average ReadReq miss latency ((Tick/Count))
system.cpu.dcache.ReadReq.mshrHits::cpu.data          113                       # number of ReadReq MSHR hits (Count)
system.cpu.dcache.ReadReq.mshrHits::total          113                       # number of ReadReq MSHR hits (Count)
system.cpu.dcache.ReadReq.mshrMisses::cpu.data           69                       # number of ReadReq MSHR misses (Count)
system.cpu.dcache.ReadReq.mshrMisses::total           69                       # number of ReadReq MSHR misses (Count)
system.cpu.dcache.ReadReq.mshrMissLatency::cpu.data      5075000                       # number of ReadReq MSHR miss ticks (Tick)
system.cpu.dcache.ReadReq.mshrMissLatency::total      5075000                       # number of ReadReq MSHR miss ticks (Tick)
system.cpu.dcache.ReadReq.mshrMissRate::cpu.data     0.000034                       # mshr miss rate for ReadReq accesses (Ratio)
system.cpu.dcache.ReadReq.mshrMissRate::total     0.000034                       # mshr miss rate for ReadReq accesses (Ratio)
system.cpu.dcache.ReadReq.avgMshrMissLatency::cpu.data 73550.724638                       # average ReadReq mshr miss latency ((Tick/Count))
system.cpu.dcache.ReadReq.avgMshrMissLatency::total 73550.724638                       # average ReadReq mshr miss latency ((Tick/Count))
system.cpu.dcache.WriteReq.hits::cpu.data      1415457                       # number of WriteReq hits (Count)
system.cpu.dcache.WriteReq.hits::total        1415457                       # number of WriteReq hits (Count)
system.cpu.dcache.WriteReq.misses::cpu.data          158                       # number of WriteReq misses (Count)
system.cpu.dcache.WriteReq.misses::total          158                       # number of WriteReq misses (Count)
system.cpu.dcache.WriteReq.missLatency::cpu.data      6081500                       # number of WriteReq miss ticks (Tick)
system.cpu.dcache.WriteReq.missLatency::total      6081500                       # number of WriteReq miss ticks (Tick)
system.cpu.dcache.WriteReq.accesses::cpu.data      1415615                       # number of WriteReq accesses(hits+misses) (Count)
system.cpu.dcache.WriteReq.accesses::total      1415615                       # number of WriteReq accesses(hits+misses) (Count)
system.cpu.dcache.WriteReq.missRate::cpu.data     0.000112                       # miss rate for WriteReq accesses (Ratio)
system.cpu.dcache.WriteReq.missRate::total     0.000112                       # miss rate for WriteReq accesses (Ratio)
system.cpu.dcache.WriteReq.avgMissLatency::cpu.data 38490.506329                       # average WriteReq miss latency ((Tick/Count))
system.cpu.dcache.WriteReq.avgMissLatency::total 38490.506329                       # average WriteReq miss latency ((Tick/Count))
system.cpu.dcache.WriteReq.mshrHits::cpu.data            1                       # number of WriteReq MSHR hits (Count)
system.cpu.dcache.WriteReq.mshrHits::total            1                       # number of WriteReq MSHR hits (Count)
system.cpu.dcache.WriteReq.mshrMisses::cpu.data          157                       # number of WriteReq MSHR misses (Count)
system.cpu.dcache.WriteReq.mshrMisses::total          157                       # number of WriteReq MSHR misses (Count)
system.cpu.dcache.WriteReq.mshrMissLatency::cpu.data      5845000                       # number of WriteReq MSHR miss ticks (Tick)
system.cpu.dcache.WriteReq.mshrMissLatency::total      5845000                       # number of WriteReq MSHR miss ticks (Tick)
system.cpu.dcache.WriteReq.mshrMissRate::cpu.data     0.000111                       # mshr miss rate for WriteReq accesses (Ratio)
system.cpu.dcache.WriteReq.mshrMissRate::total     0.000111                       # mshr miss rate for WriteReq accesses (Ratio)
system.cpu.dcache.WriteReq.avgMshrMissLatency::cpu.data 37229.299363                       # average WriteReq mshr miss latency ((Tick/Count))
system.cpu.dcache.WriteReq.avgMshrMissLatency::total 37229.299363                       # average WriteReq mshr miss latency ((Tick/Count))
system.cpu.dcache.power_state.pwrStateResidencyTicks::UNDEFINED   2372586000                       # Cumulative time (in ticks) in various power states (Tick)
system.cpu.dcache.tags.tagsInUse                 1024                       # Average ticks per tags in use ((Tick/Count))
system.cpu.dcache.tags.totalRefs              3709126                       # Total number of references to valid blocks. (Count)
system.cpu.dcache.tags.sampledRefs               1250                       # Sample count of references to valid blocks. (Count)
system.cpu.dcache.tags.avgRefs            2967.300800                       # Average number of references to valid blocks. ((Count/Count))
system.cpu.dcache.tags.warmupTick                   0                       # The tick when the warmup percentage was hit. (Tick)
system.cpu.dcache.tags.occupancies::cpu.data         1024                       # Average occupied blocks per tick, per requestor ((Count/Tick))
system.cpu.dcache.tags.avgOccs::cpu.data            1                       # Average percentage of cache occupancy ((Ratio/Tick))
system.cpu.dcache.tags.avgOccs::total               1                       # Average percentage of cache occupancy ((Ratio/Tick))
system.cpu.dcache.tags.occupanciesTaskId::1024         1024                       # Occupied blocks per task id (Count)
system.cpu.dcache.tags.ageTaskId_1024::1            3                       # Occupied blocks per task id, per block age (Count)
system.cpu.dcache.tags.ageTaskId_1024::3         1021                       # Occupied blocks per task id, per block age (Count)
system.cpu.dcache.tags.ratioOccsTaskId::1024            1                       # Ratio of occupied blocks and all blocks, per task id (Ratio)
system.cpu.dcache.tags.tagAccesses            6940684                       # Number of tag accesses (Count)
system.cpu.dcache.tags.dataAccesses           6940684                       # Number of data accesses (Count)
system.cpu.dcache.tags.power_state.pwrStateResidencyTicks::UNDEFINED   2372586000                       # Cumulative time (in ticks) in various power states (Tick)
system.cpu.decode.idleCycles                   812409                       # Number of cycles decode is idle (Cycle)
system.cpu.decode.blockedCycles               1604911                       # Number of cycles decode is blocked (Cycle)
system.cpu.decode.runCycles                   1471253                       # Number of cycles decode is running (Cycle)
system.cpu.decode.unblockCycles                847271                       # Number of cycles decode is unblocking (Cycle)
system.cpu.decode.squashCycles                   7546                       # Number of cycles decode is squashing (Cycle)
system.cpu.decode.branchResolved               776790                       # Number of times decode resolved a branch (Count)
system.cpu.decode.branchMispred                    24                       # Number of times decode detected a branch misprediction (Count)
system.cpu.decode.decodedInsts               16504872                       # Number of instructions handled by decode (Count)
system.cpu.decode.squashedInsts                   111                       # Number of squashed instructions handled by decode (Count)
system.cpu.dtb_walker_cache.blockedCycles::no_mshrs            0                       # number of cycles access was blocked (Cycle)
system.cpu.dtb_walker_cache.blockedCycles::no_targets            0                       # number of cycles access was blocked (Cycle)
system.cpu.dtb_walker_cache.blockedCauses::no_mshrs            0                       # number of times access was blocked (Count)
system.cpu.dtb_walker_cache.blockedCauses::no_targets            0                       # number of times access was blocked (Count)
system.cpu.dtb_walker_cache.avgBlocked::no_mshrs          nan                       # average number of cycles each access was blocked ((Cycle/Count))
system.cpu.dtb_walker_cache.avgBlocked::no_targets          nan                       # average number of cycles each access was blocked ((Cycle/Count))
system.cpu.dtb_walker_cache.replacements            0                       # number of replacements (Count)
system.cpu.dtb_walker_cache.power_state.pwrStateResidencyTicks::UNDEFINED   2372586000                       # Cumulative time (in ticks) in various power states (Tick)
system.cpu.dtb_walker_cache.tags.tagsInUse            0                       # Average ticks per tags in use ((Tick/Count))
system.cpu.dtb_walker_cache.tags.totalRefs            0                       # Total number of references to valid blocks. (Count)
system.cpu.dtb_walker_cache.tags.sampledRefs            0                       # Sample count of references to valid blocks. (Count)
system.cpu.dtb_walker_cache.tags.avgRefs          nan                       # Average number of references to valid blocks. ((Count/Count))
system.cpu.dtb_walker_cache.tags.warmupTick            0                       # The tick when the warmup percentage was hit. (Tick)
system.cpu.dtb_walker_cache.tags.tagAccesses            0                       # Number of tag accesses (Count)
system.cpu.dtb_walker_cache.tags.dataAccesses            0                       # Number of data accesses (Count)
system.cpu.dtb_walker_cache.tags.power_state.pwrStateResidencyTicks::UNDEFINED   2372586000                       # Cumulative time (in ticks) in various power states (Tick)
system.cpu.fetch.icacheStallCycles            1552173                       # Number of cycles fetch is stalled on an Icache miss (Cycle)
system.cpu.fetch.insts                        8935482                       # Number of instructions fetch has processed (Count)
system.cpu.fetch.branches                     1621815                       # Number of branches that fetch encountered (Count)
system.cpu.fetch.predictedBranches            1065489                       # Number of branches that fetch has predicted taken (Count)
system.cpu.fetch.cycles                       3183641                       # Number of cycles fetch has run and was not squashing or blocked (Cycle)
system.cpu.fetch.squashCycles                   15136                       # Number of cycles fetch has spent squashing (Cycle)
system.cpu.fetch.miscStallCycles                    2                       # Number of cycles fetch has spent waiting on interrupts, or bad addresses, or out of MSHRs (Cycle)
system.cpu.fetch.pendingTrapStallCycles             6                       # Number of stall cycles due to pending traps (Cycle)
system.cpu.fetch.cacheLines                   1547340                       # Number of cache lines fetched (Count)
system.cpu.fetch.icacheSquashes                   891                       # Number of outstanding Icache misses that were squashed (Count)
system.cpu.fetch.nisnDist::samples            4743390                       # Number of instructions fetched each cycle (Total) (Count)
system.cpu.fetch.nisnDist::mean              3.495849                       # Number of instructions fetched each cycle (Total) (Count)
system.cpu.fetch.nisnDist::stdev             3.260196                       # Number of instructions fetched each cycle (Total) (Count)
system.cpu.fetch.nisnDist::underflows               0      0.00%      0.00% # Number of instructions fetched each cycle (Total) (Count)
system.cpu.fetch.nisnDist::0                  1752111     36.94%     36.94% # Number of instructions fetched each cycle (Total) (Count)
system.cpu.fetch.nisnDist::1                   153733      3.24%     40.18% # Number of instructions fetched each cycle (Total) (Count)
system.cpu.fetch.nisnDist::2                   252577      5.32%     45.50% # Number of instructions fetched each cycle (Total) (Count)
system.cpu.fetch.nisnDist::3                   315844      6.66%     52.16% # Number of instructions fetched each cycle (Total) (Count)
system.cpu.fetch.nisnDist::4                   356907      7.52%     59.69% # Number of instructions fetched each cycle (Total) (Count)
system.cpu.fetch.nisnDist::5                   345341      7.28%     66.97% # Number of instructions fetched each cycle (Total) (Count)
system.cpu.fetch.nisnDist::6                   229403      4.84%     71.80% # Number of instructions fetched each cycle (Total) (Count)
system.cpu.fetch.nisnDist::7                   254789      5.37%     77.17% # Number of instructions fetched each cycle (Total) (Count)
system.cpu.fetch.nisnDist::8                  1082685     22.83%    100.00% # Number of instructions fetched each cycle (Total) (Count)
system.cpu.fetch.nisnDist::overflows                0      0.00%    100.00% # Number of instructions fetched each cycle (Total) (Count)
system.cpu.fetch.nisnDist::min_value                0                       # Number of instructions fetched each cycle (Total) (Count)
system.cpu.fetch.nisnDist::max_value                8                       # Number of instructions fetched each cycle (Total) (Count)
system.cpu.fetch.nisnDist::total              4743390                       # Number of instructions fetched each cycle (Total) (Count)
system.cpu.fetch.branchRate                  0.341782                       # Number of branch fetches per cycle (Ratio)
system.cpu.fetch.rate                        1.883068                       # Number of inst fetches per cycle ((Count/Cycle))
system.cpu.icache.demandHits::cpu.inst        1547300                       # number of demand (read+write) hits (Count)
system.cpu.icache.demandHits::total           1547300                       # number of demand (read+write) hits (Count)
system.cpu.icache.overallHits::cpu.inst       1547300                       # number of overall hits (Count)
system.cpu.icache.overallHits::total          1547300                       # number of overall hits (Count)
system.cpu.icache.demandMisses::cpu.inst           40                       # number of demand (read+write) misses (Count)
system.cpu.icache.demandMisses::total              40                       # number of demand (read+write) misses (Count)
system.cpu.icache.overallMisses::cpu.inst           40                       # number of overall misses (Count)
system.cpu.icache.overallMisses::total             40                       # number of overall misses (Count)
system.cpu.icache.demandMissLatency::cpu.inst      2615500                       # number of demand (read+write) miss ticks (Tick)
system.cpu.icache.demandMissLatency::total      2615500                       # number of demand (read+write) miss ticks (Tick)
system.cpu.icache.overallMissLatency::cpu.inst      2615500                       # number of overall miss ticks (Tick)
system.cpu.icache.overallMissLatency::total      2615500                       # number of overall miss ticks (Tick)
system.cpu.icache.demandAccesses::cpu.inst      1547340                       # number of demand (read+write) accesses (Count)
system.cpu.icache.demandAccesses::total       1547340                       # number of demand (read+write) accesses (Count)
system.cpu.icache.overallAccesses::cpu.inst      1547340                       # number of overall (read+write) accesses (Count)
system.cpu.icache.overallAccesses::total      1547340                       # number of overall (read+write) accesses (Count)
system.cpu.icache.demandMissRate::cpu.inst     0.000026                       # miss rate for demand accesses (Ratio)
system.cpu.icache.demandMissRate::total      0.000026                       # miss rate for demand accesses (Ratio)
system.cpu.icache.overallMissRate::cpu.inst     0.000026                       # miss rate for overall accesses (Ratio)
system.cpu.icache.overallMissRate::total     0.000026                       # miss rate for overall accesses (Ratio)
system.cpu.icache.demandAvgMissLatency::cpu.inst 65387.500000                       # average overall miss latency in ticks ((Tick/Count))
system.cpu.icache.demandAvgMissLatency::total 65387.500000                       # average overall miss latency in ticks ((Tick/Count))
system.cpu.icache.overallAvgMissLatency::cpu.inst 65387.500000                       # average overall miss latency ((Tick/Count))
system.cpu.icache.overallAvgMissLatency::total 65387.500000                       # average overall miss latency ((Tick/Count))
system.cpu.icache.blockedCycles::no_mshrs            0                       # number of cycles access was blocked (Cycle)
system.cpu.icache.blockedCycles::no_targets            0                       # number of cycles access was blocked (Cycle)
system.cpu.icache.blockedCauses::no_mshrs            0                       # number of times access was blocked (Count)
system.cpu.icache.blockedCauses::no_targets            0                       # number of times access was blocked (Count)
system.cpu.icache.avgBlocked::no_mshrs            nan                       # average number of cycles each access was blocked ((Cycle/Count))
system.cpu.icache.avgBlocked::no_targets          nan                       # average number of cycles each access was blocked ((Cycle/Count))
system.cpu.icache.writebacks::writebacks           21                       # number of writebacks (Count)
system.cpu.icache.writebacks::total                21                       # number of writebacks (Count)
system.cpu.icache.demandMshrHits::cpu.inst           19                       # number of demand (read+write) MSHR hits (Count)
system.cpu.icache.demandMshrHits::total            19                       # number of demand (read+write) MSHR hits (Count)
system.cpu.icache.overallMshrHits::cpu.inst           19                       # number of overall MSHR hits (Count)
system.cpu.icache.overallMshrHits::total           19                       # number of overall MSHR hits (Count)
system.cpu.icache.demandMshrMisses::cpu.inst           21                       # number of demand (read+write) MSHR misses (Count)
system.cpu.icache.demandMshrMisses::total           21                       # number of demand (read+write) MSHR misses (Count)
system.cpu.icache.overallMshrMisses::cpu.inst           21                       # number of overall MSHR misses (Count)
system.cpu.icache.overallMshrMisses::total           21                       # number of overall MSHR misses (Count)
system.cpu.icache.demandMshrMissLatency::cpu.inst      1552000                       # number of demand (read+write) MSHR miss ticks (Tick)
system.cpu.icache.demandMshrMissLatency::total      1552000                       # number of demand (read+write) MSHR miss ticks (Tick)
system.cpu.icache.overallMshrMissLatency::cpu.inst      1552000                       # number of overall MSHR miss ticks (Tick)
system.cpu.icache.overallMshrMissLatency::total      1552000                       # number of overall MSHR miss ticks (Tick)
system.cpu.icache.demandMshrMissRate::cpu.inst     0.000014                       # mshr miss ratio for demand accesses (Ratio)
system.cpu.icache.demandMshrMissRate::total     0.000014                       # mshr miss ratio for demand accesses (Ratio)
system.cpu.icache.overallMshrMissRate::cpu.inst     0.000014                       # mshr miss ratio for overall accesses (Ratio)
system.cpu.icache.overallMshrMissRate::total     0.000014                       # mshr miss ratio for overall accesses (Ratio)
system.cpu.icache.demandAvgMshrMissLatency::cpu.inst 73904.761905                       # average overall mshr miss latency ((Tick/Count))
system.cpu.icache.demandAvgMshrMissLatency::total 73904.761905                       # average overall mshr miss latency ((Tick/Count))
system.cpu.icache.overallAvgMshrMissLatency::cpu.inst 73904.761905                       # average overall mshr miss latency ((Tick/Count))
system.cpu.icache.overallAvgMshrMissLatency::total 73904.761905                       # average overall mshr miss latency ((Tick/Count))
system.cpu.icache.replacements                     21                       # number of replacements (Count)
system.cpu.icache.ReadReq.hits::cpu.inst      1547300                       # number of ReadReq hits (Count)
system.cpu.icache.ReadReq.hits::total         1547300                       # number of ReadReq hits (Count)
system.cpu.icache.ReadReq.misses::cpu.inst           40                       # number of ReadReq misses (Count)
system.cpu.icache.ReadReq.misses::total            40                       # number of ReadReq misses (Count)
system.cpu.icache.ReadReq.missLatency::cpu.inst      2615500                       # number of ReadReq miss ticks (Tick)
system.cpu.icache.ReadReq.missLatency::total      2615500                       # number of ReadReq miss ticks (Tick)
system.cpu.icache.ReadReq.accesses::cpu.inst      1547340                       # number of ReadReq accesses(hits+misses) (Count)
system.cpu.icache.ReadReq.accesses::total      1547340                       # number of ReadReq accesses(hits+misses) (Count)
system.cpu.icache.ReadReq.missRate::cpu.inst     0.000026                       # miss rate for ReadReq accesses (Ratio)
system.cpu.icache.ReadReq.missRate::total     0.000026                       # miss rate for ReadReq accesses (Ratio)
system.cpu.icache.ReadReq.avgMissLatency::cpu.inst 65387.500000                       # average ReadReq miss latency ((Tick/Count))
system.cpu.icache.ReadReq.avgMissLatency::total 65387.500000                       # average ReadReq miss latency ((Tick/Count))
system.cpu.icache.ReadReq.mshrHits::cpu.inst           19                       # number of ReadReq MSHR hits (Count)
system.cpu.icache.ReadReq.mshrHits::total           19                       # number of ReadReq MSHR hits (Count)
system.cpu.icache.ReadReq.mshrMisses::cpu.inst           21                       # number of ReadReq MSHR misses (Count)
system.cpu.icache.ReadReq.mshrMisses::total           21                       # number of ReadReq MSHR misses (Count)
system.cpu.icache.ReadReq.mshrMissLatency::cpu.inst      1552000                       # number of ReadReq MSHR miss ticks (Tick)
system.cpu.icache.ReadReq.mshrMissLatency::total      1552000                       # number of ReadReq MSHR miss ticks (Tick)
system.cpu.icache.ReadReq.mshrMissRate::cpu.inst     0.000014                       # mshr miss rate for ReadReq accesses (Ratio)
system.cpu.icache.ReadReq.mshrMissRate::total     0.000014                       # mshr miss rate for ReadReq accesses (Ratio)
system.cpu.icache.ReadReq.avgMshrMissLatency::cpu.inst 73904.761905                       # average ReadReq mshr miss latency ((Tick/Count))
system.cpu.icache.ReadReq.avgMshrMissLatency::total 73904.761905                       # average ReadReq mshr miss latency ((Tick/Count))
system.cpu.icache.power_state.pwrStateResidencyTicks::UNDEFINED   2372586000                       # Cumulative time (in ticks) in various power states (Tick)
system.cpu.icache.tags.tagsInUse                  480                       # Average ticks per tags in use ((Tick/Count))
system.cpu.icache.tags.totalRefs              1720204                       # Total number of references to valid blocks. (Count)
system.cpu.icache.tags.sampledRefs                501                       # Sample count of references to valid blocks. (Count)
system.cpu.icache.tags.avgRefs            3433.540918                       # Average number of references to valid blocks. ((Count/Count))
system.cpu.icache.tags.warmupTick                   0                       # The tick when the warmup percentage was hit. (Tick)
system.cpu.icache.tags.occupancies::cpu.inst          480                       # Average occupied blocks per tick, per requestor ((Count/Tick))
system.cpu.icache.tags.avgOccs::cpu.inst     0.937500                       # Average percentage of cache occupancy ((Ratio/Tick))
system.cpu.icache.tags.avgOccs::total        0.937500                       # Average percentage of cache occupancy ((Ratio/Tick))
system.cpu.icache.tags.occupanciesTaskId::1024          480                       # Occupied blocks per task id (Count)
system.cpu.icache.tags.ageTaskId_1024::3          480                       # Occupied blocks per task id, per block age (Count)
system.cpu.icache.tags.ratioOccsTaskId::1024     0.937500                       # Ratio of occupied blocks and all blocks, per task id (Ratio)
system.cpu.icache.tags.tagAccesses            3094701                       # Number of tag accesses (Count)
system.cpu.icache.tags.dataAccesses           3094701                       # Number of data accesses (Count)
system.cpu.icache.tags.power_state.pwrStateResidencyTicks::UNDEFINED   2372586000                       # Cumulative time (in ticks) in various power states (Tick)
system.cpu.iew.idleCycles                           0                       # Number of cycles IEW is idle (Cycle)
system.cpu.iew.squashCycles                      7546                       # Number of cycles IEW is squashing (Cycle)
system.cpu.iew.blockCycles                      45284                       # Number of cycles IEW is blocking (Cycle)
system.cpu.iew.unblockCycles                      379                       # Number of cycles IEW is unblocking (Cycle)
system.cpu.iew.dispatchedInsts               16424801                       # Number of instructions dispatched to IQ (Count)
system.cpu.iew.dispSquashedInsts                   58                       # Number of squashed instructions skipped by dispatch (Count)
system.cpu.iew.dispLoadInsts                  3551551                       # Number of dispatched load instructions (Count)
system.cpu.iew.dispStoreInsts                 1446074                       # Number of dispatched store instructions (Count)
system.cpu.iew.dispNonSpecInsts                    51                       # Number of dispatched non-speculative instructions (Count)
system.cpu.iew.iqFullEvents                        16                       # Number of times the IQ has become full, causing a stall (Count)
system.cpu.iew.lsqFullEvents                      352                       # Number of times the LSQ has become full, causing a stall (Count)
system.cpu.iew.memOrderViolationEvents             85                       # Number of memory order violations (Count)
system.cpu.iew.predictedTakenIncorrect           2292                       # Number of branches that were predicted taken incorrectly (Count)
system.cpu.iew.predictedNotTakenIncorrect          765                       # Number of branches that were predicted not taken incorrectly (Count)
system.cpu.iew.branchMispredicts                 3057                       # Number of branch mispredicts detected at execute (Count)
system.cpu.iew.mispredictedLVP                   4552                       # mispredictedLVP (Count)
system.cpu.iew.LvpCorrect                     2541270                       # LvpCorrect (Count)
system.cpu.iew.instsToCommit                 16282626                       # Cumulative count of insts sent to commit (Count)
system.cpu.iew.writebackCount                16280524                       # Cumulative count of insts written-back (Count)
system.cpu.iew.producerInst                  12306769                       # Number of instructions producing a value (Count)
system.cpu.iew.consumerInst                  19028565                       # Number of instructions consuming a value (Count)
system.cpu.iew.wbRate                        3.430966                       # Insts written-back per cycle ((Count/Cycle))
system.cpu.iew.wbFanout                      0.646752                       # Average fanout of values written-back ((Count/Count))
system.cpu.interrupts.clk_domain.clock           8000                       # Clock period in ticks (Tick)
system.cpu.itb_walker_cache.blockedCycles::no_mshrs            0                       # number of cycles access was blocked (Cycle)
system.cpu.itb_walker_cache.blockedCycles::no_targets            0                       # number of cycles access was blocked (Cycle)
system.cpu.itb_walker_cache.blockedCauses::no_mshrs            0                       # number of times access was blocked (Count)
system.cpu.itb_walker_cache.blockedCauses::no_targets            0                       # number of times access was blocked (Count)
system.cpu.itb_walker_cache.avgBlocked::no_mshrs          nan                       # average number of cycles each access was blocked ((Cycle/Count))
system.cpu.itb_walker_cache.avgBlocked::no_targets          nan                       # average number of cycles each access was blocked ((Cycle/Count))
system.cpu.itb_walker_cache.replacements            0                       # number of replacements (Count)
system.cpu.itb_walker_cache.power_state.pwrStateResidencyTicks::UNDEFINED   2372586000                       # Cumulative time (in ticks) in various power states (Tick)
system.cpu.itb_walker_cache.tags.tagsInUse            0                       # Average ticks per tags in use ((Tick/Count))
system.cpu.itb_walker_cache.tags.totalRefs            0                       # Total number of references to valid blocks. (Count)
system.cpu.itb_walker_cache.tags.sampledRefs            0                       # Sample count of references to valid blocks. (Count)
system.cpu.itb_walker_cache.tags.avgRefs          nan                       # Average number of references to valid blocks. ((Count/Count))
system.cpu.itb_walker_cache.tags.warmupTick            0                       # The tick when the warmup percentage was hit. (Tick)
system.cpu.itb_walker_cache.tags.tagAccesses            0                       # Number of tag accesses (Count)
system.cpu.itb_walker_cache.tags.dataAccesses            0                       # Number of data accesses (Count)
system.cpu.itb_walker_cache.tags.power_state.pwrStateResidencyTicks::UNDEFINED   2372586000                       # Cumulative time (in ticks) in various power states (Tick)
system.cpu.lsq0.forwLoads                     1473159                       # Number of loads that had data forwarded from stores (Count)
system.cpu.lsq0.squashedLoads                   76709                       # Number of loads squashed (Count)
system.cpu.lsq0.ignoredResponses                   46                       # Number of memory responses ignored because the instruction is squashed (Count)
system.cpu.lsq0.memOrderViolation                  85                       # Number of memory ordering violations (Count)
system.cpu.lsq0.squashedStores                  30446                       # Number of stores squashed (Count)
system.cpu.lsq0.rescheduledLoads                    0                       # Number of loads that were rescheduled (Count)
system.cpu.lsq0.blockedByCache                      5                       # Number of times an access to memory failed due to the cache being blocked (Count)
system.cpu.lsq0.loadToUse::samples            3474812                       # Distribution of cycle latency between the first time a load is issued and its completion (Unspecified)
system.cpu.lsq0.loadToUse::mean              2.750529                       # Distribution of cycle latency between the first time a load is issued and its completion (Unspecified)
system.cpu.lsq0.loadToUse::stdev             1.081152                       # Distribution of cycle latency between the first time a load is issued and its completion (Unspecified)
system.cpu.lsq0.loadToUse::0-9                3474732    100.00%    100.00% # Distribution of cycle latency between the first time a load is issued and its completion (Unspecified)
system.cpu.lsq0.loadToUse::10-19                    1      0.00%    100.00% # Distribution of cycle latency between the first time a load is issued and its completion (Unspecified)
system.cpu.lsq0.loadToUse::40-49                    3      0.00%    100.00% # Distribution of cycle latency between the first time a load is issued and its completion (Unspecified)
system.cpu.lsq0.loadToUse::100-109                  8      0.00%    100.00% # Distribution of cycle latency between the first time a load is issued and its completion (Unspecified)
system.cpu.lsq0.loadToUse::110-119                  5      0.00%    100.00% # Distribution of cycle latency between the first time a load is issued and its completion (Unspecified)
system.cpu.lsq0.loadToUse::120-129                  2      0.00%    100.00% # Distribution of cycle latency between the first time a load is issued and its completion (Unspecified)
system.cpu.lsq0.loadToUse::130-139                 31      0.00%    100.00% # Distribution of cycle latency between the first time a load is issued and its completion (Unspecified)
system.cpu.lsq0.loadToUse::140-149                  5      0.00%    100.00% # Distribution of cycle latency between the first time a load is issued and its completion (Unspecified)
system.cpu.lsq0.loadToUse::150-159                  4      0.00%    100.00% # Distribution of cycle latency between the first time a load is issued and its completion (Unspecified)
system.cpu.lsq0.loadToUse::160-169                  6      0.00%    100.00% # Distribution of cycle latency between the first time a load is issued and its completion (Unspecified)
[...]
system.mem_ctrls.dram.perBankWrBursts::1            9                       # Per bank write bursts (Count)
system.mem_ctrls.dram.perBankWrBursts::2            1                       # Per bank write bursts (Count)
system.mem_ctrls.dram.perBankWrBursts::3            6                       # Per bank write bursts (Count)
system.mem_ctrls.dram.perBankWrBursts::4           27                       # Per bank write bursts (Count)
system.mem_ctrls.dram.perBankWrBursts::5            4                       # Per bank write bursts (Count)
system.mem_ctrls.dram.perBankWrBursts::6            2                       # Per bank write bursts (Count)
system.mem_ctrls.dram.perBankWrBursts::7            0                       # Per bank write bursts (Count)
system.mem_ctrls.dram.perBankWrBursts::8            3                       # Per bank write bursts (Count)
system.mem_ctrls.dram.perBankWrBursts::9            1                       # Per bank write bursts (Count)
system.mem_ctrls.dram.perBankWrBursts::10            2                       # Per bank write bursts (Count)
system.mem_ctrls.dram.perBankWrBursts::11            0                       # Per bank write bursts (Count)
system.mem_ctrls.dram.perBankWrBursts::12           32                       # Per bank write bursts (Count)
system.mem_ctrls.dram.perBankWrBursts::13            0                       # Per bank write bursts (Count)
system.mem_ctrls.dram.perBankWrBursts::14            4                       # Per bank write bursts (Count)
system.mem_ctrls.dram.perBankWrBursts::15            0                       # Per bank write bursts (Count)
system.mem_ctrls.dram.totQLat                 2891000                       # Total ticks spent queuing (Tick)
system.mem_ctrls.dram.totBusLat                730000                       # Total ticks spent in databus transfers (Tick)
system.mem_ctrls.dram.totMemAccLat            5628500                       # Total ticks spent from burst creation until serviced by the DRAM (Tick)
system.mem_ctrls.dram.avgQLat                19801.37                       # Average queueing delay per DRAM burst ((Tick/Count))
system.mem_ctrls.dram.avgBusLat               5000.00                       # Average bus latency per DRAM burst ((Tick/Count))
system.mem_ctrls.dram.avgMemAccLat           38551.37                       # Average memory access latency per DRAM burst ((Tick/Count))
system.mem_ctrls.dram.readRowHits                  77                       # Number of row buffer hits during reads (Count)
system.mem_ctrls.dram.writeRowHits                 85                       # Number of row buffer hits during writes (Count)
system.mem_ctrls.dram.readRowHitRate            52.74                       # Row buffer hit rate for reads (Ratio)
system.mem_ctrls.dram.writeRowHitRate           75.89                       # Row buffer hit rate for writes (Ratio)
system.mem_ctrls.dram.bytesPerActivate::samples           99                       # Bytes accessed per row activation (Byte)
system.mem_ctrls.dram.bytesPerActivate::mean   173.252525                       # Bytes accessed per row activation (Byte)
system.mem_ctrls.dram.bytesPerActivate::gmean   113.407262                       # Bytes accessed per row activation (Byte)
system.mem_ctrls.dram.bytesPerActivate::stdev   211.722303                       # Bytes accessed per row activation (Byte)
system.mem_ctrls.dram.bytesPerActivate::0-127           58     58.59%     58.59% # Bytes accessed per row activation (Byte)
system.mem_ctrls.dram.bytesPerActivate::128-255           21     21.21%     79.80% # Bytes accessed per row activation (Byte)
system.mem_ctrls.dram.bytesPerActivate::256-383            8      8.08%     87.88% # Bytes accessed per row activation (Byte)
system.mem_ctrls.dram.bytesPerActivate::384-511            2      2.02%     89.90% # Bytes accessed per row activation (Byte)
system.mem_ctrls.dram.bytesPerActivate::512-639            3      3.03%     92.93% # Bytes accessed per row activation (Byte)
system.mem_ctrls.dram.bytesPerActivate::640-767            3      3.03%     95.96% # Bytes accessed per row activation (Byte)
system.mem_ctrls.dram.bytesPerActivate::768-895            1      1.01%     96.97% # Bytes accessed per row activation (Byte)
system.mem_ctrls.dram.bytesPerActivate::896-1023            1      1.01%     97.98% # Bytes accessed per row activation (Byte)
system.mem_ctrls.dram.bytesPerActivate::1024-1151            2      2.02%    100.00% # Bytes accessed per row activation (Byte)
system.mem_ctrls.dram.bytesPerActivate::total           99                       # Bytes accessed per row activation (Byte)
system.mem_ctrls.dram.bytesRead                  9344                       # Total bytes read (Byte)
system.mem_ctrls.dram.bytesWritten               7168                       # Total bytes written (Byte)
system.mem_ctrls.dram.avgRdBW                3.938319                       # Average DRAM read bandwidth in MiBytes/s ((Byte/Second))
system.mem_ctrls.dram.avgWrBW                3.021176                       # Average DRAM write bandwidth in MiBytes/s ((Byte/Second))
system.mem_ctrls.dram.peakBW                 12800.00                       # Theoretical peak bandwidth in MiByte/s ((Byte/Second))
system.mem_ctrls.dram.busUtil                    0.05                       # Data bus utilization in percentage (Ratio)
system.mem_ctrls.dram.busUtilRead                0.03                       # Data bus utilization in percentage for reads (Ratio)
system.mem_ctrls.dram.busUtilWrite               0.02                       # Data bus utilization in percentage for writes (Ratio)
system.mem_ctrls.dram.pageHitRate               62.79                       # Row buffer hit rate, read and write combined (Ratio)
system.mem_ctrls.dram.power_state.pwrStateResidencyTicks::UNDEFINED   2372586000                       # Cumulative time (in ticks) in various power states (Tick)
system.mem_ctrls.dram.rank0.actEnergy          514080                       # Energy for activate commands per rank (pJ) (Joule)
system.mem_ctrls.dram.rank0.preEnergy          280830                       # Energy for precharge commands per rank (pJ) (Joule)
system.mem_ctrls.dram.rank0.readEnergy         892500                       # Energy for read commands per rank (pJ) (Joule)
system.mem_ctrls.dram.rank0.writeEnergy        365400                       # Energy for write commands per rank (pJ) (Joule)
system.mem_ctrls.dram.rank0.refreshEnergy 187465200.000000                       # Energy for refresh commands per rank (pJ) (Joule)
system.mem_ctrls.dram.rank0.actBackEnergy     95557080                       # Energy for active background per rank (pJ) (Joule)
system.mem_ctrls.dram.rank0.preBackEnergy    830603520                       # Energy for precharge background per rank (pJ) (Joule)
system.mem_ctrls.dram.rank0.actPowerDownEnergy            0                       # Energy for active power-down per rank (pJ) (Joule)
system.mem_ctrls.dram.rank0.prePowerDownEnergy            0                       # Energy for precharge power-down per rank (pJ) (Joule)
system.mem_ctrls.dram.rank0.selfRefreshEnergy            0                       # Energy for self refresh per rank (pJ) (Joule)
system.mem_ctrls.dram.rank0.totalEnergy    1115678610                       # Total energy per rank (pJ) (Joule)
system.mem_ctrls.dram.rank0.averagePower   470.237374                       # Core power per rank (mW) (Watt)
system.mem_ctrls.dram.rank0.totalIdleTime            0                       # Total Idle time Per DRAM Rank (Tick)
system.mem_ctrls.dram.rank0.pwrStateTime::IDLE   2158396250                       # Time in different power states (Tick)
system.mem_ctrls.dram.rank0.pwrStateTime::REF     79300000                       # Time in different power states (Tick)
system.mem_ctrls.dram.rank0.pwrStateTime::SREF            0                       # Time in different power states (Tick)
system.mem_ctrls.dram.rank0.pwrStateTime::PRE_PDN            0                       # Time in different power states (Tick)
system.mem_ctrls.dram.rank0.pwrStateTime::ACT    134889750                       # Time in different power states (Tick)
system.mem_ctrls.dram.rank0.pwrStateTime::ACT_PDN            0                       # Time in different power states (Tick)
system.mem_ctrls.dram.rank1.actEnergy          171360                       # Energy for activate commands per rank (pJ) (Joule)
system.mem_ctrls.dram.rank1.preEnergy           94875                       # Energy for precharge commands per rank (pJ) (Joule)
system.mem_ctrls.dram.rank1.readEnergy         149940                       # Energy for read commands per rank (pJ) (Joule)
system.mem_ctrls.dram.rank1.writeEnergy        240120                       # Energy for write commands per rank (pJ) (Joule)
system.mem_ctrls.dram.rank1.refreshEnergy 187465200.000000                       # Energy for refresh commands per rank (pJ) (Joule)
system.mem_ctrls.dram.rank1.actBackEnergy     38801040                       # Energy for active background per rank (pJ) (Joule)
system.mem_ctrls.dram.rank1.preBackEnergy    878398080                       # Energy for precharge background per rank (pJ) (Joule)
system.mem_ctrls.dram.rank1.actPowerDownEnergy            0                       # Energy for active power-down per rank (pJ) (Joule)
system.mem_ctrls.dram.rank1.prePowerDownEnergy            0                       # Energy for precharge power-down per rank (pJ) (Joule)
system.mem_ctrls.dram.rank1.selfRefreshEnergy            0                       # Energy for self refresh per rank (pJ) (Joule)
system.mem_ctrls.dram.rank1.totalEnergy    1105320615                       # Total energy per rank (pJ) (Joule)
system.mem_ctrls.dram.rank1.averagePower   465.871675                       # Core power per rank (mW) (Watt)
system.mem_ctrls.dram.rank1.totalIdleTime            0                       # Total Idle time Per DRAM Rank (Tick)
system.mem_ctrls.dram.rank1.pwrStateTime::IDLE   2283231500                       # Time in different power states (Tick)
system.mem_ctrls.dram.rank1.pwrStateTime::REF     79300000                       # Time in different power states (Tick)
system.mem_ctrls.dram.rank1.pwrStateTime::SREF            0                       # Time in different power states (Tick)
system.mem_ctrls.dram.rank1.pwrStateTime::PRE_PDN            0                       # Time in different power states (Tick)
system.mem_ctrls.dram.rank1.pwrStateTime::ACT     10054500                       # Time in different power states (Tick)
system.mem_ctrls.dram.rank1.pwrStateTime::ACT_PDN            0                       # Time in different power states (Tick)
system.mem_ctrls.power_state.pwrStateResidencyTicks::UNDEFINED   2372586000                       # Cumulative time (in ticks) in various power states (Tick)
system.membus.transDist::ReadResp                  90                       # Transaction distribution (Count)
system.membus.transDist::WritebackDirty           161                       # Transaction distribution (Count)
system.membus.transDist::WritebackClean            21                       # Transaction distribution (Count)
system.membus.transDist::CleanEvict                65                       # Transaction distribution (Count)
system.membus.transDist::ReadExReq                157                       # Transaction distribution (Count)
system.membus.transDist::ReadExResp               157                       # Transaction distribution (Count)
system.membus.transDist::ReadCleanReq              21                       # Transaction distribution (Count)
system.membus.transDist::ReadSharedReq             69                       # Transaction distribution (Count)
system.membus.pktCount_system.cpu.icache.mem_side_port::system.mem_ctrls.port           63                       # Packet count per connected requestor and responder (Count)
system.membus.pktCount_system.cpu.icache.mem_side_port::total           63                       # Packet count per connected requestor and responder (Count)
system.membus.pktCount_system.cpu.dcache.mem_side_port::system.mem_ctrls.port          678                       # Packet count per connected requestor and responder (Count)
system.membus.pktCount_system.cpu.dcache.mem_side_port::total          678                       # Packet count per connected requestor and responder (Count)
system.membus.pktCount::total                     741                       # Packet count per connected requestor and responder (Count)
system.membus.pktSize_system.cpu.icache.mem_side_port::system.mem_ctrls.port         2688                       # Cumulative packet size per connected requestor and responder (Byte)
system.membus.pktSize_system.cpu.icache.mem_side_port::total         2688                       # Cumulative packet size per connected requestor and responder (Byte)
system.membus.pktSize_system.cpu.dcache.mem_side_port::system.mem_ctrls.port        24768                       # Cumulative packet size per connected requestor and responder (Byte)
system.membus.pktSize_system.cpu.dcache.mem_side_port::total        24768                       # Cumulative packet size per connected requestor and responder (Byte)
system.membus.pktSize::total                    27456                       # Cumulative packet size per connected requestor and responder (Byte)
system.membus.snoops                                0                       # Total snoops (Count)
system.membus.snoopTraffic                          0                       # Total snoop traffic (Byte)
system.membus.snoopFanout::samples                247                       # Request fanout histogram (Count)
system.membus.snoopFanout::mean              0.004049                       # Request fanout histogram (Count)
system.membus.snoopFanout::stdev             0.063628                       # Request fanout histogram (Count)
system.membus.snoopFanout::underflows               0      0.00%      0.00% # Request fanout histogram (Count)
system.membus.snoopFanout::0                      246     99.60%     99.60% # Request fanout histogram (Count)
system.membus.snoopFanout::1                        1      0.40%    100.00% # Request fanout histogram (Count)
system.membus.snoopFanout::2                        0      0.00%    100.00% # Request fanout histogram (Count)
system.membus.snoopFanout::3                        0      0.00%    100.00% # Request fanout histogram (Count)
system.membus.snoopFanout::4                        0      0.00%    100.00% # Request fanout histogram (Count)
system.membus.snoopFanout::overflows                0      0.00%    100.00% # Request fanout histogram (Count)
system.membus.snoopFanout::min_value                0                       # Request fanout histogram (Count)
system.membus.snoopFanout::max_value                1                       # Request fanout histogram (Count)
system.membus.snoopFanout::total                  247                       # Request fanout histogram (Count)
system.membus.power_state.pwrStateResidencyTicks::UNDEFINED   2372586000                       # Cumulative time (in ticks) in various power states (Tick)
system.membus.reqLayer2.occupancy             1281500                       # Layer occupancy (ticks) (Tick)
system.membus.reqLayer2.utilization               0.0                       # Layer utilization (Ratio)
system.membus.respLayer1.occupancy             113250                       # Layer occupancy (ticks) (Tick)
system.membus.respLayer1.utilization              0.0                       # Layer utilization (Ratio)
system.membus.respLayer2.occupancy            1175500                       # Layer occupancy (ticks) (Tick)
system.membus.respLayer2.utilization              0.0                       # Layer utilization (Ratio)
system.membus.snoop_filter.totRequests            494                       # Total number of requests made to the snoop filter. (Count)
system.membus.snoop_filter.hitSingleRequests          247                       # Number of requests hitting in the snoop filter with a single holder of the requested data. (Count)
system.membus.snoop_filter.hitMultiRequests            1                       # Number of requests hitting in the snoop filter with multiple (>1) holders of the requested data. (Count)
system.membus.snoop_filter.totSnoops                0                       # Total number of snoops made to the snoop filter. (Count)
system.membus.snoop_filter.hitSingleSnoops            0                       # Number of snoops hitting in the snoop filter with a single holder of the requested data. (Count)
system.membus.snoop_filter.hitMultiSnoops            0                       # Number of snoops hitting in the snoop filter with multiple (>1) holders of the requested data. (Count)
system.voltage_domain.voltage                       1                       # Voltage in Volts (Volt)
system.workload.inst.arm                            0                       # number of arm instructions executed (Count)
system.workload.inst.quiesce                        0                       # number of quiesce instructions executed (Count)
system.cpu.loadValPred.constant_verification_unit.constLoadHits      1635899                       # Number of loads marked constant that hit in the CVU CAM (Unspecified)
system.cpu.loadValPred.constant_verification_unit.constLoadMisses       454868                       # Number of loads marked constant that missed in the CVU CAM (Unspecified)
system.cpu.loadValPred.constant_verification_unit.numCAMReplacements           70                       # Number of CVU CAM entries replaced (Unspecified)
system.cpu.loadValPred.constant_verification_unit.numLoadAccesses      2090767                       # Number of loads marked constant which accessed the CVU (Unspecified)
system.cpu.loadValPred.constant_verification_unit.numStoreAccesses      1430678                       # Number of store instructions which accessed the CVU (Unspecified)
system.cpu.loadValPred.constant_verification_unit.numStoreHits       454788                       # Number of stores that hit in the CVU CAM (Unspecified)
system.cpu.loadValPred.constant_verification_unit.numStoreMisses       975890                       # Number of stores that missed in the CVU CAM (Unspecified)
system.cpu.loadValPred.correctTotal           2541270                       # Number predictions corrects for predictable verification (Unspecified)
system.cpu.loadValPred.numConstLoads          2095347                       # Number of loads classified as constant (Unspecified)
system.cpu.loadValPred.numConstLoadsCorrect      1635899                       # Number of constant loads correctly predicted (Unspecified)
system.cpu.loadValPred.numConstLoadsMispredicted       454868                       # Number of constant loads incorrectly predicted (Unspecified)
system.cpu.loadValPred.numConstValOne           14410                       # Number of constant loads with value 1 (Unspecified)
system.cpu.loadValPred.numConstValZero          52511                       # Number of constant loads with value 0 (Unspecified)
system.cpu.loadValPred.numPredictableLoads       455130                       # Number of loads classified as predictable (Unspecified)
system.cpu.loadValPred.numPredictableLoadsCorrect       454858                       # Number of loads correctly classified as predictable (Unspecified)
system.cpu.loadValPred.numPredictableLoadsIncorrect          197                       # Number of loads incorrectly classified as predictable (Unspecified)
system.cpu.loadValPred.totalLoads             3527776                       # Total loads processed by the Load value predictor (Unspecified)
system.cpu.loadValPred.valueLocalityNumerator      2545740                       # Number predictions corrects (Unspecified)

---------- End Simulation Statistics   ----------
