
---------- Begin Simulation Statistics ----------
simSeconds                                   0.005105                       # Number of seconds simulated (Second)
simTicks                                   5104659000                       # Number of ticks simulated (Tick)
finalTick                                  5104659000                       # Number of ticks from beginning of simulation (restored from checkpoints and never reset) (Tick)
simFreq                                  1000000000000                       # The number of ticks per simulated second ((Tick/Second))
hostSeconds                                    106.86                       # Real time elapsed on the host (Second)
hostTickRate                                 47770047                       # The number of ticks simulated per host second (ticks/s) ((Tick/Second))
hostMemory                                    8772320                       # Number of bytes of host memory used (Byte)
simInsts                                     10000001                       # Number of instructions simulated (Count)
simOps                                       18680745                       # Number of ops (including micro ops) simulated (Count)
hostInstRate                                    93581                       # Simulator instruction rate (inst/s) ((Count/Second))
hostOpRate                                     174816                       # Simulator op (including micro ops) rate (op/s) ((Count/Second))
system.clk_domain.clock                          1000                       # Clock period in ticks (Tick)
system.cpu.numCycles                         10209319                       # Number of cpu cycles simulated (Cycle)
system.cpu.numWorkItemsStarted                      0                       # Number of work items this cpu started (Count)
system.cpu.numWorkItemsCompleted                    0                       # Number of work items this cpu completed (Count)
system.cpu.instsAdded                        23410597                       # Number of instructions added to the IQ (excludes non-spec) (Count)
system.cpu.nonSpecInstsAdded                      298                       # Number of non-speculative instructions added to the IQ (Count)
system.cpu.instsIssued                       21675288                       # Number of instructions issued (Count)
system.cpu.squashedInstsIssued                  18060                       # Number of squashed instructions issued (Count)
system.cpu.squashedInstsExamined              4730136                       # Number of squashed instructions iterated over during squash; mainly for profiling (Count)
system.cpu.squashedOperandsExamined          10818489                       # Number of squashed operands that are examined and possibly removed from graph (Count)
system.cpu.squashedNonSpecRemoved                 145                       # Number of squashed non-spec instructions that were removed (Count)
system.cpu.numIssuedDist::samples             9519802                       # Number of insts issued each cycle (Count)
system.cpu.numIssuedDist::mean               2.276863                       # Number of insts issued each cycle (Count)
system.cpu.numIssuedDist::stdev              2.341222                       # Number of insts issued each cycle (Count)
system.cpu.numIssuedDist::underflows                0      0.00%      0.00% # Number of insts issued each cycle (Count)
system.cpu.numIssuedDist::0                   3582725     37.63%     37.63% # Number of insts issued each cycle (Count)
system.cpu.numIssuedDist::1                    875527      9.20%     46.83% # Number of insts issued each cycle (Count)
system.cpu.numIssuedDist::2                   1177872     12.37%     59.20% # Number of insts issued each cycle (Count)
system.cpu.numIssuedDist::3                   1002219     10.53%     69.73% # Number of insts issued each cycle (Count)
system.cpu.numIssuedDist::4                    894099      9.39%     79.12% # Number of insts issued each cycle (Count)
system.cpu.numIssuedDist::5                    779402      8.19%     87.31% # Number of insts issued each cycle (Count)
system.cpu.numIssuedDist::6                    660733      6.94%     94.25% # Number of insts issued each cycle (Count)
system.cpu.numIssuedDist::7                    378244      3.97%     98.22% # Number of insts issued each cycle (Count)
system.cpu.numIssuedDist::8                    168981      1.78%    100.00% # Number of insts issued each cycle (Count)
system.cpu.numIssuedDist::overflows                 0      0.00%    100.00% # Number of insts issued each cycle (Count)
system.cpu.numIssuedDist::min_value                 0                       # Number of insts issued each cycle (Count)
system.cpu.numIssuedDist::max_value                 8                       # Number of insts issued each cycle (Count)
system.cpu.numIssuedDist::total               9519802                       # Number of insts issued each cycle (Count)
system.cpu.statFuBusy::No_OpClass                   0      0.00%      0.00% # attempts to use FU when none available (Count)
system.cpu.statFuBusy::IntAlu                  292128     85.66%     85.66% # attempts to use FU when none available (Count)
system.cpu.statFuBusy::IntMult                      0      0.00%     85.66% # attempts to use FU when none available (Count)
system.cpu.statFuBusy::IntDiv                       0      0.00%     85.66% # attempts to use FU when none available (Count)
system.cpu.statFuBusy::FloatAdd                     0      0.00%     85.66% # attempts to use FU when none available (Count)
system.cpu.statFuBusy::FloatCmp                     0      0.00%     85.66% # attempts to use FU when none available (Count)
system.cpu.statFuBusy::FloatCvt                     2      0.00%     85.66% # attempts to use FU when none available (Count)
system.cpu.statFuBusy::FloatMult                    0      0.00%     85.66% # attempts to use FU when none available (Count)
system.cpu.statFuBusy::FloatMultAcc                 0      0.00%     85.66% # attempts to use FU when none available (Count)
system.cpu.statFuBusy::FloatDiv                     0      0.00%     85.66% # attempts to use FU when none available (Count)
system.cpu.statFuBusy::FloatMisc                    0      0.00%     85.66% # attempts to use FU when none available (Count)
system.cpu.statFuBusy::FloatSqrt                    0      0.00%     85.66% # attempts to use FU when none available (Count)
system.cpu.statFuBusy::SimdAdd                      0      0.00%     85.66% # attempts to use FU when none available (Count)
system.cpu.statFuBusy::SimdAddAcc                   0      0.00%     85.66% # attempts to use FU when none available (Count)
system.cpu.statFuBusy::SimdAlu                      0      0.00%     85.66% # attempts to use FU when none available (Count)
system.cpu.statFuBusy::SimdCmp                      0      0.00%     85.66% # attempts to use FU when none available (Count)
system.cpu.statFuBusy::SimdCvt                      2      0.00%     85.66% # attempts to use FU when none available (Count)
system.cpu.statFuBusy::SimdMisc                     0      0.00%     85.66% # attempts to use FU when none available (Count)
system.cpu.statFuBusy::SimdMult                     0      0.00%     85.66% # attempts to use FU when none available (Count)
system.cpu.statFuBusy::SimdMultAcc                  0      0.00%     85.66% # attempts to use FU when none available (Count)
system.cpu.statFuBusy::SimdShift                    4      0.00%     85.66% # attempts to use FU when none available (Count)
system.cpu.statFuBusy::SimdShiftAcc                 0      0.00%     85.66% # attempts to use FU when none available (Count)
system.cpu.statFuBusy::SimdDiv                      0      0.00%     85.66% # attempts to use FU when none available (Count)
system.cpu.statFuBusy::SimdSqrt                     0      0.00%     85.66% # attempts to use FU when none available (Count)
system.cpu.statFuBusy::SimdFloatAdd                 0      0.00%     85.66% # attempts to use FU when none available (Count)
system.cpu.statFuBusy::SimdFloatAlu                 0      0.00%     85.66% # attempts to use FU when none available (Count)
system.cpu.statFuBusy::SimdFloatCmp                 0      0.00%     85.66% # attempts to use FU when none available (Count)
system.cpu.statFuBusy::SimdFloatCvt                 0      0.00%     85.66% # attempts to use FU when none available (Count)
system.cpu.statFuBusy::SimdFloatDiv                 0      0.00%     85.66% # attempts to use FU when none available (Count)
system.cpu.statFuBusy::SimdFloatMisc                0      0.00%     85.66% # attempts to use FU when none available (Count)
system.cpu.statFuBusy::SimdFloatMult                0      0.00%     85.66% # attempts to use FU when none available (Count)
system.cpu.statFuBusy::SimdFloatMultAcc             0      0.00%     85.66% # attempts to use FU when none available (Count)
system.cpu.statFuBusy::SimdFloatSqrt                0      0.00%     85.66% # attempts to use FU when none available (Count)
system.cpu.statFuBusy::SimdReduceAdd                0      0.00%     85.66% # attempts to use FU when none available (Count)
system.cpu.statFuBusy::SimdReduceAlu                0      0.00%     85.66% # attempts to use FU when none available (Count)
system.cpu.statFuBusy::SimdReduceCmp                0      0.00%     85.66% # attempts to use FU when none available (Count)
system.cpu.statFuBusy::SimdFloatReduceAdd            0      0.00%     85.66% # attempts to use FU when none available (Count)
system.cpu.statFuBusy::SimdFloatReduceCmp            0      0.00%     85.66% # attempts to use FU when none available (Count)
system.cpu.statFuBusy::SimdAes                      0      0.00%     85.66% # attempts to use FU when none available (Count)
system.cpu.statFuBusy::SimdAesMix                   0      0.00%     85.66% # attempts to use FU when none available (Count)
system.cpu.statFuBusy::SimdSha1Hash                 0      0.00%     85.66% # attempts to use FU when none available (Count)
system.cpu.statFuBusy::SimdSha1Hash2                0      0.00%     85.66% # attempts to use FU when none available (Count)
system.cpu.statFuBusy::SimdSha256Hash               0      0.00%     85.66% # attempts to use FU when none available (Count)
system.cpu.statFuBusy::SimdSha256Hash2              0      0.00%     85.66% # attempts to use FU when none available (Count)
system.cpu.statFuBusy::SimdShaSigma2                0      0.00%     85.66% # attempts to use FU when none available (Count)
system.cpu.statFuBusy::SimdShaSigma3                0      0.00%     85.66% # attempts to use FU when none available (Count)
system.cpu.statFuBusy::SimdPredAlu                  0      0.00%     85.66% # attempts to use FU when none available (Count)
system.cpu.statFuBusy::MemRead                  38262     11.22%     96.88% # attempts to use FU when none available (Count)
system.cpu.statFuBusy::MemWrite                 10243      3.00%     99.89% # attempts to use FU when none available (Count)
system.cpu.statFuBusy::FloatMemRead               375      0.11%    100.00% # attempts to use FU when none available (Count)
system.cpu.statFuBusy::FloatMemWrite               16      0.00%    100.00% # attempts to use FU when none available (Count)
system.cpu.statFuBusy::IprAccess                    0      0.00%    100.00% # attempts to use FU when none available (Count)
system.cpu.statFuBusy::InstPrefetch                 0      0.00%    100.00% # attempts to use FU when none available (Count)
system.cpu.statIssuedInstType_0::No_OpClass        67672      0.31%      0.31% # Number of instructions issued per FU type, per thread (Count)
system.cpu.statIssuedInstType_0::IntAlu      17519087     80.83%     81.14% # Number of instructions issued per FU type, per thread (Count)
system.cpu.statIssuedInstType_0::IntMult         8794      0.04%     81.18% # Number of instructions issued per FU type, per thread (Count)
system.cpu.statIssuedInstType_0::IntDiv        157763      0.73%     81.91% # Number of instructions issued per FU type, per thread (Count)
system.cpu.statIssuedInstType_0::FloatAdd        15303      0.07%     81.98% # Number of instructions issued per FU type, per thread (Count)
system.cpu.statIssuedInstType_0::FloatCmp            0      0.00%     81.98% # Number of instructions issued per FU type, per thread (Count)
system.cpu.statIssuedInstType_0::FloatCvt          324      0.00%     81.98% # Number of instructions issued per FU type, per thread (Count)
system.cpu.statIssuedInstType_0::FloatMult            0      0.00%     81.98% # Number of instructions issued per FU type, per thread (Count)
system.cpu.statIssuedInstType_0::FloatMultAcc            0      0.00%     81.98% # Number of instructions issued per FU type, per thread (Count)
system.cpu.statIssuedInstType_0::FloatDiv            2      0.00%     81.98% # Number of instructions issued per FU type, per thread (Count)
system.cpu.statIssuedInstType_0::FloatMisc            0      0.00%     81.98% # Number of instructions issued per FU type, per thread (Count)
system.cpu.statIssuedInstType_0::FloatSqrt            0      0.00%     81.98% # Number of instructions issued per FU type, per thread (Count)
system.cpu.statIssuedInstType_0::SimdAdd         1556      0.01%     81.99% # Number of instructions issued per FU type, per thread (Count)
system.cpu.statIssuedInstType_0::SimdAddAcc            0      0.00%     81.99% # Number of instructions issued per FU type, per thread (Count)
system.cpu.statIssuedInstType_0::SimdAlu        13448      0.06%     82.05% # Number of instructions issued per FU type, per thread (Count)
system.cpu.statIssuedInstType_0::SimdCmp            0      0.00%     82.05% # Number of instructions issued per FU type, per thread (Count)
system.cpu.statIssuedInstType_0::SimdCvt        15019      0.07%     82.12% # Number of instructions issued per FU type, per thread (Count)
system.cpu.statIssuedInstType_0::SimdMisc        13220      0.06%     82.18% # Number of instructions issued per FU type, per thread (Count)
system.cpu.statIssuedInstType_0::SimdMult            0      0.00%     82.18% # Number of instructions issued per FU type, per thread (Count)
system.cpu.statIssuedInstType_0::SimdMultAcc            0      0.00%     82.18% # Number of instructions issued per FU type, per thread (Count)
system.cpu.statIssuedInstType_0::SimdShift         1097      0.01%     82.18% # Number of instructions issued per FU type, per thread (Count)
system.cpu.statIssuedInstType_0::SimdShiftAcc            0      0.00%     82.18% # Number of instructions issued per FU type, per thread (Count)
system.cpu.statIssuedInstType_0::SimdDiv            0      0.00%     82.18% # Number of instructions issued per FU type, per thread (Count)
system.cpu.statIssuedInstType_0::SimdSqrt            0      0.00%     82.18% # Number of instructions issued per FU type, per thread (Count)
system.cpu.statIssuedInstType_0::SimdFloatAdd           22      0.00%     82.18% # Number of instructions issued per FU type, per thread (Count)
system.cpu.statIssuedInstType_0::SimdFloatAlu            0      0.00%     82.18% # Number of instructions issued per FU type, per thread (Count)
system.cpu.statIssuedInstType_0::SimdFloatCmp            0      0.00%     82.18% # Number of instructions issued per FU type, per thread (Count)
system.cpu.statIssuedInstType_0::SimdFloatCvt            4      0.00%     82.18% # Number of instructions issued per FU type, per thread (Count)
system.cpu.statIssuedInstType_0::SimdFloatDiv            9      0.00%     82.18% # Number of instructions issued per FU type, per thread (Count)
system.cpu.statIssuedInstType_0::SimdFloatMisc            0      0.00%     82.18% # Number of instructions issued per FU type, per thread (Count)
system.cpu.statIssuedInstType_0::SimdFloatMult           40      0.00%     82.18% # Number of instructions issued per FU type, per thread (Count)
system.cpu.statIssuedInstType_0::SimdFloatMultAcc            0      0.00%     82.18% # Number of instructions issued per FU type, per thread (Count)
system.cpu.statIssuedInstType_0::SimdFloatSqrt            0      0.00%     82.18% # Number of instructions issued per FU type, per thread (Count)
system.cpu.statIssuedInstType_0::SimdReduceAdd            0      0.00%     82.18% # Number of instructions issued per FU type, per thread (Count)
system.cpu.statIssuedInstType_0::SimdReduceAlu            0      0.00%     82.18% # Number of instructions issued per FU type, per thread (Count)
system.cpu.statIssuedInstType_0::SimdReduceCmp            0      0.00%     82.18% # Number of instructions issued per FU type, per thread (Count)
system.cpu.statIssuedInstType_0::SimdFloatReduceAdd            0      0.00%     82.18% # Number of instructions issued per FU type, per thread (Count)
system.cpu.statIssuedInstType_0::SimdFloatReduceCmp            0      0.00%     82.18% # Number of instructions issued per FU type, per thread (Count)
system.cpu.statIssuedInstType_0::SimdAes            0      0.00%     82.18% # Number of instructions issued per FU type, per thread (Count)
system.cpu.statIssuedInstType_0::SimdAesMix            0      0.00%     82.18% # Number of instructions issued per FU type, per thread (Count)
system.cpu.statIssuedInstType_0::SimdSha1Hash            0      0.00%     82.18% # Number of instructions issued per FU type, per thread (Count)
system.cpu.statIssuedInstType_0::SimdSha1Hash2            0      0.00%     82.18% # Number of instructions issued per FU type, per thread (Count)
system.cpu.statIssuedInstType_0::SimdSha256Hash            0      0.00%     82.18% # Number of instructions issued per FU type, per thread (Count)
system.cpu.statIssuedInstType_0::SimdSha256Hash2            0      0.00%     82.18% # Number of instructions issued per FU type, per thread (Count)
system.cpu.statIssuedInstType_0::SimdShaSigma2            0      0.00%     82.18% # Number of instructions issued per FU type, per thread (Count)
system.cpu.statIssuedInstType_0::SimdShaSigma3            0      0.00%     82.18% # Number of instructions issued per FU type, per thread (Count)
system.cpu.statIssuedInstType_0::SimdPredAlu            0      0.00%     82.18% # Number of instructions issued per FU type, per thread (Count)
system.cpu.statIssuedInstType_0::MemRead      2622606     12.10%     94.28% # Number of instructions issued per FU type, per thread (Count)
system.cpu.statIssuedInstType_0::MemWrite      1193558      5.51%     99.79% # Number of instructions issued per FU type, per thread (Count)
system.cpu.statIssuedInstType_0::FloatMemRead        31653      0.15%     99.93% # Number of instructions issued per FU type, per thread (Count)
system.cpu.statIssuedInstType_0::FloatMemWrite        14111      0.07%    100.00% # Number of instructions issued per FU type, per thread (Count)
system.cpu.statIssuedInstType_0::IprAccess            0      0.00%    100.00% # Number of instructions issued per FU type, per thread (Count)
system.cpu.statIssuedInstType_0::InstPrefetch            0      0.00%    100.00% # Number of instructions issued per FU type, per thread (Count)
system.cpu.statIssuedInstType_0::total       21675288                       # Number of instructions issued per FU type, per thread (Count)
system.cpu.issueRate                         2.123089                       # Inst issue rate ((Count/Cycle))
system.cpu.fuBusy                              341032                       # FU busy when requested (Count)
system.cpu.fuBusyRate                        0.015734                       # FU busy rate (busy events/executed inst) ((Count/Count))
system.cpu.intInstQueueReads                 53016893                       # Number of integer instruction queue reads (Count)
system.cpu.intInstQueueWrites                28004773                       # Number of integer instruction queue writes (Count)
system.cpu.intInstQueueWakeupAccesses        21126232                       # Number of integer instruction queue wakeup accesses (Count)
system.cpu.fpInstQueueReads                    212576                       # Number of floating instruction queue reads (Count)
system.cpu.fpInstQueueWrites                   136768                       # Number of floating instruction queue writes (Count)
system.cpu.fpInstQueueWakeupAccesses           101429                       # Number of floating instruction queue wakeup accesses (Count)
system.cpu.vecInstQueueReads                        0                       # Number of vector instruction queue reads (Count)
system.cpu.vecInstQueueWrites                       0                       # Number of vector instruction queue writes (Count)
system.cpu.vecInstQueueWakeupAccesses               0                       # Number of vector instruction queue wakeup accesses (Count)
system.cpu.intAluAccesses                    21842233                       # Number of integer alu accesses (Count)
system.cpu.fpAluAccesses                       106415                       # Number of floating point alu accesses (Count)
system.cpu.vecAluAccesses                           0                       # Number of vector alu accesses (Count)
system.cpu.numInsts                          21400709                       # Number of executed instructions (Count)
system.cpu.numLoadInsts                       2599152                       # Number of load instructions executed (Count)
system.cpu.numSquashedInsts                    274578                       # Number of squashed instructions skipped in execute (Count)
system.cpu.numSwp                                   0                       # Number of swp insts executed (Count)
system.cpu.numNop                                   0                       # Number of nop insts executed (Count)
system.cpu.numRefs                            3782352                       # Number of memory reference insts executed (Count)
system.cpu.numBranches                        2276445                       # Number of branches executed (Count)
system.cpu.numStoreInsts                      1183200                       # Number of stores executed (Count)
system.cpu.numRate                           2.096194                       # Inst execution rate ((Count/Cycle))
system.cpu.timesIdled                           28784                       # Number of times that the entire CPU went into an idle state and unscheduled itself (Count)
system.cpu.idleCycles                          689517                       # Total number of cycles that the CPU has spent unscheduled due to idling (Cycle)
system.cpu.committedInsts                    10000001                       # Number of Instructions Simulated (Count)
system.cpu.committedOps                      18680745                       # Number of Ops (including micro ops) Simulated (Count)
system.cpu.cpi                               1.020932                       # CPI: Cycles Per Instruction ((Cycle/Count))
system.cpu.totalCpi                          1.020932                       # CPI: Total CPI of All Threads ((Cycle/Count))
system.cpu.ipc                               0.979497                       # IPC: Instructions Per Cycle ((Count/Cycle))
system.cpu.totalIpc                          0.979497                       # IPC: Total IPC of All Threads ((Count/Cycle))
system.cpu.intRegfileReads                   31942008                       # Number of integer regfile reads (Count)
system.cpu.intRegfileWrites                  17535442                       # Number of integer regfile writes (Count)
system.cpu.fpRegfileReads                      140603                       # Number of floating regfile reads (Count)
system.cpu.fpRegfileWrites                      81622                       # Number of floating regfile writes (Count)
system.cpu.ccRegfileReads                    13364812                       # number of cc regfile reads (Count)
system.cpu.ccRegfileWrites                    8059831                       # number of cc regfile writes (Count)
system.cpu.miscRegfileReads                   8474253                       # number of misc regfile reads (Count)
system.cpu.miscRegfileWrites                      153                       # number of misc regfile writes (Count)
system.cpu.MemDepUnit__0.insertedLoads        2824452                       # Number of loads inserted to the mem dependence unit. (Count)
system.cpu.MemDepUnit__0.insertedStores       1295583                       # Number of stores inserted to the mem dependence unit. (Count)
system.cpu.MemDepUnit__0.conflictingLoads       219860                       # Number of conflicting loads. (Count)
system.cpu.MemDepUnit__0.conflictingStores       143529                       # Number of conflicting stores. (Count)
system.cpu.MemDepUnit__1.insertedLoads              0                       # Number of loads inserted to the mem dependence unit. (Count)
system.cpu.MemDepUnit__1.insertedStores             0                       # Number of stores inserted to the mem dependence unit. (Count)
system.cpu.MemDepUnit__1.conflictingLoads            0                       # Number of conflicting loads. (Count)
system.cpu.MemDepUnit__1.conflictingStores            0                       # Number of conflicting stores. (Count)
system.cpu.MemDepUnit__2.insertedLoads              0                       # Number of loads inserted to the mem dependence unit. (Count)
system.cpu.MemDepUnit__2.insertedStores             0                       # Number of stores inserted to the mem dependence unit. (Count)
system.cpu.MemDepUnit__2.conflictingLoads            0                       # Number of conflicting loads. (Count)
system.cpu.MemDepUnit__2.conflictingStores            0                       # Number of conflicting stores. (Count)
system.cpu.MemDepUnit__3.insertedLoads              0                       # Number of loads inserted to the mem dependence unit. (Count)
system.cpu.MemDepUnit__3.insertedStores             0                       # Number of stores inserted to the mem dependence unit. (Count)
system.cpu.MemDepUnit__3.conflictingLoads            0                       # Number of conflicting loads. (Count)
system.cpu.MemDepUnit__3.conflictingStores            0                       # Number of conflicting stores. (Count)
system.cpu.branchPred.lookups                 2958588                       # Number of BP lookups (Count)
system.cpu.branchPred.condPredicted           2435431                       # Number of conditional branches predicted (Count)
system.cpu.branchPred.condIncorrect             59244                       # Number of conditional branches incorrect (Count)
system.cpu.branchPred.BTBLookups              1445120                       # Number of BTB lookups (Count)
system.cpu.branchPred.BTBHits                 1423427                       # Number of BTB hits (Count)
system.cpu.branchPred.BTBHitRatio            0.984989                       # BTB Hit Ratio (Ratio)
system.cpu.branchPred.RASUsed                  122968                       # Number of times the RAS was used to get a target. (Count)
system.cpu.branchPred.RASIncorrect                 12                       # Number of incorrect RAS predictions. (Count)
system.cpu.branchPred.indirectLookups           22214                       # Number of indirect predictor lookups. (Count)
system.cpu.branchPred.indirectHits              19442                       # Number of indirect target hits. (Count)
system.cpu.branchPred.indirectMisses             2772                       # Number of indirect misses. (Count)
system.cpu.branchPred.indirectMispredicted          606                       # Number of mispredicted indirect branches. (Count)
system.cpu.commit.commitSquashedInsts         4720496                       # The number of squashed insts skipped by commit (Count)
system.cpu.commit.commitNonSpecStalls             153                       # The number of times commit has been forced to stall to communicate backwards (Count)
system.cpu.commit.branchMispredicts            132325                       # The number of times a branch was mispredicted (Count)
system.cpu.commit.numCommittedDist::samples      8845447                       # Number of insts commited each cycle (Count)
system.cpu.commit.numCommittedDist::mean     2.111905                       # Number of insts commited each cycle (Count)
system.cpu.commit.numCommittedDist::stdev     2.647472                       # Number of insts commited each cycle (Count)
system.cpu.commit.numCommittedDist::underflows            0      0.00%      0.00% # Number of insts commited each cycle (Count)
system.cpu.commit.numCommittedDist::0         3706766     41.91%     41.91% # Number of insts commited each cycle (Count)
system.cpu.commit.numCommittedDist::1         1377814     15.58%     57.48% # Number of insts commited each cycle (Count)
system.cpu.commit.numCommittedDist::2          788677      8.92%     66.40% # Number of insts commited each cycle (Count)
system.cpu.commit.numCommittedDist::3         1049903     11.87%     78.27% # Number of insts commited each cycle (Count)
system.cpu.commit.numCommittedDist::4          368182      4.16%     82.43% # Number of insts commited each cycle (Count)
system.cpu.commit.numCommittedDist::5          287276      3.25%     85.68% # Number of insts commited each cycle (Count)
system.cpu.commit.numCommittedDist::6          168613      1.91%     87.58% # Number of insts commited each cycle (Count)
system.cpu.commit.numCommittedDist::7          130646      1.48%     89.06% # Number of insts commited each cycle (Count)
system.cpu.commit.numCommittedDist::8          967570     10.94%    100.00% # Number of insts commited each cycle (Count)
system.cpu.commit.numCommittedDist::overflows            0      0.00%    100.00% # Number of insts commited each cycle (Count)
system.cpu.commit.numCommittedDist::min_value            0                       # Number of insts commited each cycle (Count)
system.cpu.commit.numCommittedDist::max_value            8                       # Number of insts commited each cycle (Count)
system.cpu.commit.numCommittedDist::total      8845447                       # Number of insts commited each cycle (Count)
system.cpu.commit.instsCommitted             10000001                       # Number of instructions committed (Count)
system.cpu.commit.opsCommitted               18680745                       # Number of ops (including micro ops) committed (Count)
system.cpu.commit.memRefs                     3248831                       # Number of memory references committed (Count)
system.cpu.commit.loads                       2182663                       # Number of loads committed (Count)
system.cpu.commit.amos                              0                       # Number of atomic instructions committed (Count)
system.cpu.commit.membars                           0                       # Number of memory barriers committed (Count)
system.cpu.commit.branches                    2101127                       # Number of branches committed (Count)
system.cpu.commit.vectorInstructions                0                       # Number of committed Vector instructions. (Count)
system.cpu.commit.floating                      90670                       # Number of committed floating point instructions. (Count)
system.cpu.commit.integer                    18521173                       # Number of committed integer instructions. (Count)
system.cpu.commit.functionCalls                 87946                       # Number of function calls committed. (Count)
system.cpu.commit.committedInstType_0::No_OpClass        58291      0.31%      0.31% # Class of committed instruction (Count)
system.cpu.commit.committedInstType_0::IntAlu     15160779     81.16%     81.47% # Class of committed instruction (Count)
system.cpu.commit.committedInstType_0::IntMult         7803      0.04%     81.51% # Class of committed instruction (Count)
system.cpu.commit.committedInstType_0::IntDiv       151975      0.81%     82.32% # Class of committed instruction (Count)
system.cpu.commit.committedInstType_0::FloatAdd        11510      0.06%     82.39% # Class of committed instruction (Count)
system.cpu.commit.committedInstType_0::FloatCmp            0      0.00%     82.39% # Class of committed instruction (Count)
system.cpu.commit.committedInstType_0::FloatCvt          272      0.00%     82.39% # Class of committed instruction (Count)
system.cpu.commit.committedInstType_0::FloatMult            0      0.00%     82.39% # Class of committed instruction (Count)
system.cpu.commit.committedInstType_0::FloatMultAcc            0      0.00%     82.39% # Class of committed instruction (Count)
system.cpu.commit.committedInstType_0::FloatDiv            0      0.00%     82.39% # Class of committed instruction (Count)
system.cpu.commit.committedInstType_0::FloatMisc            0      0.00%     82.39% # Class of committed instruction (Count)
system.cpu.commit.committedInstType_0::FloatSqrt            0      0.00%     82.39% # Class of committed instruction (Count)
system.cpu.commit.committedInstType_0::SimdAdd         1178      0.01%     82.39% # Class of committed instruction (Count)
system.cpu.commit.committedInstType_0::SimdAddAcc            0      0.00%     82.39% # Class of committed instruction (Count)
system.cpu.commit.committedInstType_0::SimdAlu        12651      0.07%     82.46% # Class of committed instruction (Count)
system.cpu.commit.committedInstType_0::SimdCmp            0      0.00%     82.46% # Class of committed instruction (Count)
system.cpu.commit.committedInstType_0::SimdCvt        13812      0.07%     82.54% # Class of committed instruction (Count)
system.cpu.commit.committedInstType_0::SimdMisc        12991      0.07%     82.61% # Class of committed instruction (Count)
system.cpu.commit.committedInstType_0::SimdMult            0      0.00%     82.61% # Class of committed instruction (Count)
system.cpu.commit.committedInstType_0::SimdMultAcc            0      0.00%     82.61% # Class of committed instruction (Count)
system.cpu.commit.committedInstType_0::SimdShift          582      0.00%     82.61% # Class of committed instruction (Count)
system.cpu.commit.committedInstType_0::SimdShiftAcc            0      0.00%     82.61% # Class of committed instruction (Count)
system.cpu.commit.committedInstType_0::SimdDiv            0      0.00%     82.61% # Class of committed instruction (Count)
system.cpu.commit.committedInstType_0::SimdSqrt            0      0.00%     82.61% # Class of committed instruction (Count)
system.cpu.commit.committedInstType_0::SimdFloatAdd           21      0.00%     82.61% # Class of committed instruction (Count)
system.cpu.commit.committedInstType_0::SimdFloatAlu            0      0.00%     82.61% # Class of committed instruction (Count)
system.cpu.commit.committedInstType_0::SimdFloatCmp            0      0.00%     82.61% # Class of committed instruction (Count)
system.cpu.commit.committedInstType_0::SimdFloatCvt            4      0.00%     82.61% # Class of committed instruction (Count)
system.cpu.commit.committedInstType_0::SimdFloatDiv            9      0.00%     82.61% # Class of committed instruction (Count)
system.cpu.commit.committedInstType_0::SimdFloatMisc            0      0.00%     82.61% # Class of committed instruction (Count)
system.cpu.commit.committedInstType_0::SimdFloatMult           36      0.00%     82.61% # Class of committed instruction (Count)
system.cpu.commit.committedInstType_0::SimdFloatMultAcc            0      0.00%     82.61% # Class of committed instruction (Count)
system.cpu.commit.committedInstType_0::SimdFloatSqrt            0      0.00%     82.61% # Class of committed instruction (Count)
system.cpu.commit.committedInstType_0::SimdReduceAdd            0      0.00%     82.61% # Class of committed instruction (Count)
system.cpu.commit.committedInstType_0::SimdReduceAlu            0      0.00%     82.61% # Class of committed instruction (Count)
system.cpu.commit.committedInstType_0::SimdReduceCmp            0      0.00%     82.61% # Class of committed instruction (Count)
system.cpu.commit.committedInstType_0::SimdFloatReduceAdd            0      0.00%     82.61% # Class of committed instruction (Count)
system.cpu.commit.committedInstType_0::SimdFloatReduceCmp            0      0.00%     82.61% # Class of committed instruction (Count)
system.cpu.commit.committedInstType_0::SimdAes            0      0.00%     82.61% # Class of committed instruction (Count)
system.cpu.commit.committedInstType_0::SimdAesMix            0      0.00%     82.61% # Class of committed instruction (Count)
system.cpu.commit.committedInstType_0::SimdSha1Hash            0      0.00%     82.61% # Class of committed instruction (Count)
system.cpu.commit.committedInstType_0::SimdSha1Hash2            0      0.00%     82.61% # Class of committed instruction (Count)
system.cpu.commit.committedInstType_0::SimdSha256Hash            0      0.00%     82.61% # Class of committed instruction (Count)
system.cpu.commit.committedInstType_0::SimdSha256Hash2            0      0.00%     82.61% # Class of committed instruction (Count)
system.cpu.commit.committedInstType_0::SimdShaSigma2            0      0.00%     82.61% # Class of committed instruction (Count)
system.cpu.commit.committedInstType_0::SimdShaSigma3            0      0.00%     82.61% # Class of committed instruction (Count)
system.cpu.commit.committedInstType_0::SimdPredAlu            0      0.00%     82.61% # Class of committed instruction (Count)
system.cpu.commit.committedInstType_0::MemRead      2157043     11.55%     94.16% # Class of committed instruction (Count)
system.cpu.commit.committedInstType_0::MemWrite      1054329      5.64%     99.80% # Class of committed instruction (Count)
system.cpu.commit.committedInstType_0::FloatMemRead        25620      0.14%     99.94% # Class of committed instruction (Count)
system.cpu.commit.committedInstType_0::FloatMemWrite        11839      0.06%    100.00% # Class of committed instruction (Count)
system.cpu.commit.committedInstType_0::IprAccess            0      0.00%    100.00% # Class of committed instruction (Count)
system.cpu.commit.committedInstType_0::InstPrefetch            0      0.00%    100.00% # Class of committed instruction (Count)
system.cpu.commit.committedInstType_0::total     18680745                       # Class of committed instruction (Count)
system.cpu.commit.commitEligibleSamples        967570                       # number cycles where commit BW limit reached (Cycle)
system.cpu.dcache.demandHits::cpu.data        3301615                       # number of demand (read+write) hits (Count)
system.cpu.dcache.demandHits::total           3301615                       # number of demand (read+write) hits (Count)
system.cpu.dcache.overallHits::cpu.data       3301615                       # number of overall hits (Count)
system.cpu.dcache.overallHits::total          3301615                       # number of overall hits (Count)
system.cpu.dcache.demandMisses::cpu.data        58671                       # number of demand (read+write) misses (Count)
system.cpu.dcache.demandMisses::total           58671                       # number of demand (read+write) misses (Count)
system.cpu.dcache.overallMisses::cpu.data        58671                       # number of overall misses (Count)
system.cpu.dcache.overallMisses::total          58671                       # number of overall misses (Count)
system.cpu.dcache.demandMissLatency::cpu.data   3677608474                       # number of demand (read+write) miss ticks (Tick)
system.cpu.dcache.demandMissLatency::total   3677608474                       # number of demand (read+write) miss ticks (Tick)
system.cpu.dcache.overallMissLatency::cpu.data   3677608474                       # number of overall miss ticks (Tick)
system.cpu.dcache.overallMissLatency::total   3677608474                       # number of overall miss ticks (Tick)
system.cpu.dcache.demandAccesses::cpu.data      3360286                       # number of demand (read+write) accesses (Count)
system.cpu.dcache.demandAccesses::total       3360286                       # number of demand (read+write) accesses (Count)
system.cpu.dcache.overallAccesses::cpu.data      3360286                       # number of overall (read+write) accesses (Count)
system.cpu.dcache.overallAccesses::total      3360286                       # number of overall (read+write) accesses (Count)
system.cpu.dcache.demandMissRate::cpu.data     0.017460                       # miss rate for demand accesses (Ratio)
system.cpu.dcache.demandMissRate::total      0.017460                       # miss rate for demand accesses (Ratio)
system.cpu.dcache.overallMissRate::cpu.data     0.017460                       # miss rate for overall accesses (Ratio)
system.cpu.dcache.overallMissRate::total     0.017460                       # miss rate for overall accesses (Ratio)
system.cpu.dcache.demandAvgMissLatency::cpu.data 62681.878168                       # average overall miss latency in ticks ((Tick/Count))
system.cpu.dcache.demandAvgMissLatency::total 62681.878168                       # average overall miss latency in ticks ((Tick/Count))
system.cpu.dcache.overallAvgMissLatency::cpu.data 62681.878168                       # average overall miss latency ((Tick/Count))
system.cpu.dcache.overallAvgMissLatency::total 62681.878168                       # average overall miss latency ((Tick/Count))
system.cpu.dcache.blockedCycles::no_mshrs        24534                       # number of cycles access was blocked (Cycle)
system.cpu.dcache.blockedCycles::no_targets          213                       # number of cycles access was blocked (Cycle)
system.cpu.dcache.blockedCauses::no_mshrs          553                       # number of times access was blocked (Count)
system.cpu.dcache.blockedCauses::no_targets            5                       # number of times access was blocked (Count)
system.cpu.dcache.avgBlocked::no_mshrs      44.365280                       # average number of cycles each access was blocked ((Cycle/Count))
system.cpu.dcache.avgBlocked::no_targets    42.600000                       # average number of cycles each access was blocked ((Cycle/Count))
system.cpu.dcache.writebacks::writebacks         3101                       # number of writebacks (Count)
system.cpu.dcache.writebacks::total              3101                       # number of writebacks (Count)
system.cpu.dcache.demandMshrHits::cpu.data        37613                       # number of demand (read+write) MSHR hits (Count)
system.cpu.dcache.demandMshrHits::total         37613                       # number of demand (read+write) MSHR hits (Count)
system.cpu.dcache.overallMshrHits::cpu.data        37613                       # number of overall MSHR hits (Count)
system.cpu.dcache.overallMshrHits::total        37613                       # number of overall MSHR hits (Count)
system.cpu.dcache.demandMshrMisses::cpu.data        21058                       # number of demand (read+write) MSHR misses (Count)
system.cpu.dcache.demandMshrMisses::total        21058                       # number of demand (read+write) MSHR misses (Count)
system.cpu.dcache.overallMshrMisses::cpu.data        21058                       # number of overall MSHR misses (Count)
system.cpu.dcache.overallMshrMisses::total        21058                       # number of overall MSHR misses (Count)
system.cpu.dcache.demandMshrMissLatency::cpu.data   1448860475                       # number of demand (read+write) MSHR miss ticks (Tick)
system.cpu.dcache.demandMshrMissLatency::total   1448860475                       # number of demand (read+write) MSHR miss ticks (Tick)
system.cpu.dcache.overallMshrMissLatency::cpu.data   1448860475                       # number of overall MSHR miss ticks (Tick)
system.cpu.dcache.overallMshrMissLatency::total   1448860475                       # number of overall MSHR miss ticks (Tick)
system.cpu.dcache.demandMshrMissRate::cpu.data     0.006267                       # mshr miss ratio for demand accesses (Ratio)
system.cpu.dcache.demandMshrMissRate::total     0.006267                       # mshr miss ratio for demand accesses (Ratio)
system.cpu.dcache.overallMshrMissRate::cpu.data     0.006267                       # mshr miss ratio for overall accesses (Ratio)
system.cpu.dcache.overallMshrMissRate::total     0.006267                       # mshr miss ratio for overall accesses (Ratio)
system.cpu.dcache.demandAvgMshrMissLatency::cpu.data 68803.327714                       # average overall mshr miss latency ((Tick/Count))
system.cpu.dcache.demandAvgMshrMissLatency::total 68803.327714                       # average overall mshr miss latency ((Tick/Count))
system.cpu.dcache.overallAvgMshrMissLatency::cpu.data 68803.327714                       # average overall mshr miss latency ((Tick/Count))
system.cpu.dcache.overallAvgMshrMissLatency::total 68803.327714                       # average overall mshr miss latency ((Tick/Count))
system.cpu.dcache.replacements                  20029                       # number of replacements (Count)
system.cpu.dcache.ReadReq.hits::cpu.data      2238951                       # number of ReadReq hits (Count)
system.cpu.dcache.ReadReq.hits::total         2238951                       # number of ReadReq hits (Count)
system.cpu.dcache.ReadReq.misses::cpu.data        55159                       # number of ReadReq misses (Count)
system.cpu.dcache.ReadReq.misses::total         55159                       # number of ReadReq misses (Count)
system.cpu.dcache.ReadReq.missLatency::cpu.data   3450768500                       # number of ReadReq miss ticks (Tick)
system.cpu.dcache.ReadReq.missLatency::total   3450768500                       # number of ReadReq miss ticks (Tick)
system.cpu.dcache.ReadReq.accesses::cpu.data      2294110                       # number of ReadReq accesses(hits+misses) (Count)
system.cpu.dcache.ReadReq.accesses::total      2294110                       # number of ReadReq accesses(hits+misses) (Count)
system.cpu.dcache.ReadReq.missRate::cpu.data     0.024044                       # miss rate for ReadReq accesses (Ratio)
system.cpu.dcache.ReadReq.missRate::total     0.024044                       # miss rate for ReadReq accesses (Ratio)
system.cpu.dcache.ReadReq.avgMissLatency::cpu.data 62560.389057                       # average ReadReq miss latency ((Tick/Count))
system.cpu.dcache.ReadReq.avgMissLatency::total 62560.389057                       # average ReadReq miss latency ((Tick/Count))
system.cpu.dcache.ReadReq.mshrHits::cpu.data        37570                       # number of ReadReq MSHR hits (Count)
system.cpu.dcache.ReadReq.mshrHits::total        37570                       # number of ReadReq MSHR hits (Count)
system.cpu.dcache.ReadReq.mshrMisses::cpu.data        17589                       # number of ReadReq MSHR misses (Count)
system.cpu.dcache.ReadReq.mshrMisses::total        17589                       # number of ReadReq MSHR misses (Count)
system.cpu.dcache.ReadReq.mshrMissLatency::cpu.data   1227046000                       # number of ReadReq MSHR miss ticks (Tick)
system.cpu.dcache.ReadReq.mshrMissLatency::total   1227046000                       # number of ReadReq MSHR miss ticks (Tick)
system.cpu.dcache.ReadReq.mshrMissRate::cpu.data     0.007667                       # mshr miss rate for ReadReq accesses (Ratio)
system.cpu.dcache.ReadReq.mshrMissRate::total     0.007667                       # mshr miss rate for ReadReq accesses (Ratio)
system.cpu.dcache.ReadReq.avgMshrMissLatency::cpu.data 69762.124055                       # average ReadReq mshr miss latency ((Tick/Count))
system.cpu.dcache.ReadReq.avgMshrMissLatency::total 69762.124055                       # average ReadReq mshr miss latency ((Tick/Count))
system.cpu.dcache.WriteReq.hits::cpu.data      1062664                       # number of WriteReq hits (Count)
system.cpu.dcache.WriteReq.hits::total        1062664                       # number of WriteReq hits (Count)
system.cpu.dcache.WriteReq.misses::cpu.data         3512                       # number of WriteReq misses (Count)
system.cpu.dcache.WriteReq.misses::total         3512                       # number of WriteReq misses (Count)
system.cpu.dcache.WriteReq.missLatency::cpu.data    226839974                       # number of WriteReq miss ticks (Tick)
system.cpu.dcache.WriteReq.missLatency::total    226839974                       # number of WriteReq miss ticks (Tick)
system.cpu.dcache.WriteReq.accesses::cpu.data      1066176                       # number of WriteReq accesses(hits+misses) (Count)
system.cpu.dcache.WriteReq.accesses::total      1066176                       # number of WriteReq accesses(hits+misses) (Count)
system.cpu.dcache.WriteReq.missRate::cpu.data     0.003294                       # miss rate for WriteReq accesses (Ratio)
system.cpu.dcache.WriteReq.missRate::total     0.003294                       # miss rate for WriteReq accesses (Ratio)
system.cpu.dcache.WriteReq.avgMissLatency::cpu.data 64589.969818                       # average WriteReq miss latency ((Tick/Count))
system.cpu.dcache.WriteReq.avgMissLatency::total 64589.969818                       # average WriteReq miss latency ((Tick/Count))
system.cpu.dcache.WriteReq.mshrHits::cpu.data           43                       # number of WriteReq MSHR hits (Count)
system.cpu.dcache.WriteReq.mshrHits::total           43                       # number of WriteReq MSHR hits (Count)
system.cpu.dcache.WriteReq.mshrMisses::cpu.data         3469                       # number of WriteReq MSHR misses (Count)
system.cpu.dcache.WriteReq.mshrMisses::total         3469                       # number of WriteReq MSHR misses (Count)
system.cpu.dcache.WriteReq.mshrMissLatency::cpu.data    221814475                       # number of WriteReq MSHR miss ticks (Tick)
system.cpu.dcache.WriteReq.mshrMissLatency::total    221814475                       # number of WriteReq MSHR miss ticks (Tick)
system.cpu.dcache.WriteReq.mshrMissRate::cpu.data     0.003254                       # mshr miss rate for WriteReq accesses (Ratio)
system.cpu.dcache.WriteReq.mshrMissRate::total     0.003254                       # mshr miss rate for WriteReq accesses (Ratio)
system.cpu.dcache.WriteReq.avgMshrMissLatency::cpu.data 63941.906890                       # average WriteReq mshr miss latency ((Tick/Count))
system.cpu.dcache.WriteReq.avgMshrMissLatency::total 63941.906890                       # average WriteReq mshr miss latency ((Tick/Count))
system.cpu.dcache.power_state.pwrStateResidencyTicks::UNDEFINED   5104659000                       # Cumulative time (in ticks) in various power states (Tick)
system.cpu.dcache.tags.tagsInUse          1012.576718                       # Average ticks per tags in use ((Tick/Count))
system.cpu.dcache.tags.totalRefs              3322673                       # Total number of references to valid blocks. (Count)
system.cpu.dcache.tags.sampledRefs              21053                       # Sample count of references to valid blocks. (Count)
system.cpu.dcache.tags.avgRefs             157.824206                       # Average number of references to valid blocks. ((Count/Count))
system.cpu.dcache.tags.warmupTick              148000                       # The tick when the warmup percentage was hit. (Tick)
system.cpu.dcache.tags.occupancies::cpu.data  1012.576718                       # Average occupied blocks per tick, per requestor ((Count/Tick))
system.cpu.dcache.tags.avgOccs::cpu.data     0.988844                       # Average percentage of cache occupancy ((Ratio/Tick))
system.cpu.dcache.tags.avgOccs::total        0.988844                       # Average percentage of cache occupancy ((Ratio/Tick))
system.cpu.dcache.tags.occupanciesTaskId::1024         1024                       # Occupied blocks per task id (Count)
system.cpu.dcache.tags.ageTaskId_1024::0            6                       # Occupied blocks per task id, per block age (Count)
system.cpu.dcache.tags.ageTaskId_1024::1           43                       # Occupied blocks per task id, per block age (Count)
system.cpu.dcache.tags.ageTaskId_1024::2          350                       # Occupied blocks per task id, per block age (Count)
system.cpu.dcache.tags.ageTaskId_1024::3          625                       # Occupied blocks per task id, per block age (Count)
system.cpu.dcache.tags.ratioOccsTaskId::1024            1                       # Ratio of occupied blocks and all blocks, per task id (Ratio)
system.cpu.dcache.tags.tagAccesses            6741625                       # Number of tag accesses (Count)
system.cpu.dcache.tags.dataAccesses           6741625                       # Number of data accesses (Count)
system.cpu.dcache.tags.power_state.pwrStateResidencyTicks::UNDEFINED   5104659000                       # Cumulative time (in ticks) in various power states (Tick)
system.cpu.decode.idleCycles                  2719579                       # Number of cycles decode is idle (Cycle)
system.cpu.decode.blockedCycles               2720050                       # Number of cycles decode is blocked (Cycle)
system.cpu.decode.runCycles                   3564682                       # Number of cycles decode is running (Cycle)
system.cpu.decode.unblockCycles                382258                       # Number of cycles decode is unblocking (Cycle)
system.cpu.decode.squashCycles                 133233                       # Number of cycles decode is squashing (Cycle)
system.cpu.decode.branchResolved              1361195                       # Number of times decode resolved a branch (Count)
system.cpu.decode.branchMispred                  1212                       # Number of times decode detected a branch misprediction (Count)
system.cpu.decode.decodedInsts               24957278                       # Number of instructions handled by decode (Count)
system.cpu.decode.squashedInsts                  5299                       # Number of squashed instructions handled by decode (Count)
system.cpu.dtb_walker_cache.blockedCycles::no_mshrs            0                       # number of cycles access was blocked (Cycle)
system.cpu.dtb_walker_cache.blockedCycles::no_targets            0                       # number of cycles access was blocked (Cycle)
system.cpu.dtb_walker_cache.blockedCauses::no_mshrs            0                       # number of times access was blocked (Count)
system.cpu.dtb_walker_cache.blockedCauses::no_targets            0                       # number of times access was blocked (Count)
system.cpu.dtb_walker_cache.avgBlocked::no_mshrs          nan                       # average number of cycles each access was blocked ((Cycle/Count))
system.cpu.dtb_walker_cache.avgBlocked::no_targets          nan                       # average number of cycles each access was blocked ((Cycle/Count))
system.cpu.dtb_walker_cache.replacements            0                       # number of replacements (Count)
system.cpu.dtb_walker_cache.power_state.pwrStateResidencyTicks::UNDEFINED   5104659000                       # Cumulative time (in ticks) in various power states (Tick)
system.cpu.dtb_walker_cache.tags.tagsInUse            0                       # Average ticks per tags in use ((Tick/Count))
system.cpu.dtb_walker_cache.tags.totalRefs            0                       # Total number of references to valid blocks. (Count)
system.cpu.dtb_walker_cache.tags.sampledRefs            0                       # Sample count of references to valid blocks. (Count)
system.cpu.dtb_walker_cache.tags.avgRefs          nan                       # Average number of references to valid blocks. ((Count/Count))
system.cpu.dtb_walker_cache.tags.warmupTick            0                       # The tick when the warmup percentage was hit. (Tick)
system.cpu.dtb_walker_cache.tags.tagAccesses            0                       # Number of tag accesses (Count)
system.cpu.dtb_walker_cache.tags.dataAccesses            0                       # Number of data accesses (Count)
system.cpu.dtb_walker_cache.tags.power_state.pwrStateResidencyTicks::UNDEFINED   5104659000                       # Cumulative time (in ticks) in various power states (Tick)
system.cpu.fetch.icacheStallCycles            2915600                       # Number of cycles fetch is stalled on an Icache miss (Cycle)
system.cpu.fetch.insts                       13901802                       # Number of instructions fetch has processed (Count)
system.cpu.fetch.branches                     2958588                       # Number of branches that fetch encountered (Count)
system.cpu.fetch.predictedBranches            1565837                       # Number of branches that fetch has predicted taken (Count)
system.cpu.fetch.cycles                       6464317                       # Number of cycles fetch has run and was not squashing or blocked (Cycle)
system.cpu.fetch.squashCycles                  268784                       # Number of cycles fetch has spent squashing (Cycle)
system.cpu.fetch.miscStallCycles                  679                       # Number of cycles fetch has spent waiting on interrupts, or bad addresses, or out of MSHRs (Cycle)
system.cpu.fetch.pendingTrapStallCycles          4814                       # Number of stall cycles due to pending traps (Cycle)
system.cpu.fetch.cacheLines                   2001242                       # Number of cache lines fetched (Count)
system.cpu.fetch.icacheSquashes                 38879                       # Number of outstanding Icache misses that were squashed (Count)
system.cpu.fetch.nisnDist::samples            9519802                       # Number of instructions fetched each cycle (Total) (Count)
system.cpu.fetch.nisnDist::mean              2.729761                       # Number of instructions fetched each cycle (Total) (Count)
system.cpu.fetch.nisnDist::stdev             3.390139                       # Number of instructions fetched each cycle (Total) (Count)
system.cpu.fetch.nisnDist::underflows               0      0.00%      0.00% # Number of instructions fetched each cycle (Total) (Count)
system.cpu.fetch.nisnDist::0                  5150420     54.10%     54.10% # Number of instructions fetched each cycle (Total) (Count)
system.cpu.fetch.nisnDist::1                   260319      2.73%     56.84% # Number of instructions fetched each cycle (Total) (Count)
system.cpu.fetch.nisnDist::2                   307536      3.23%     60.07% # Number of instructions fetched each cycle (Total) (Count)
system.cpu.fetch.nisnDist::3                   332974      3.50%     63.56% # Number of instructions fetched each cycle (Total) (Count)
system.cpu.fetch.nisnDist::4                   498338      5.23%     68.80% # Number of instructions fetched each cycle (Total) (Count)
system.cpu.fetch.nisnDist::5                   329160      3.46%     72.26% # Number of instructions fetched each cycle (Total) (Count)
system.cpu.fetch.nisnDist::6                   229418      2.41%     74.67% # Number of instructions fetched each cycle (Total) (Count)
system.cpu.fetch.nisnDist::7                   196282      2.06%     76.73% # Number of instructions fetched each cycle (Total) (Count)
system.cpu.fetch.nisnDist::8                  2215355     23.27%    100.00% # Number of instructions fetched each cycle (Total) (Count)
system.cpu.fetch.nisnDist::overflows                0      0.00%    100.00% # Number of instructions fetched each cycle (Total) (Count)
system.cpu.fetch.nisnDist::min_value                0                       # Number of instructions fetched each cycle (Total) (Count)
system.cpu.fetch.nisnDist::max_value                8                       # Number of instructions fetched each cycle (Total) (Count)
system.cpu.fetch.nisnDist::total              9519802                       # Number of instructions fetched each cycle (Total) (Count)
system.cpu.fetch.branchRate                  0.289793                       # Number of branch fetches per cycle (Ratio)
system.cpu.fetch.rate                        1.361678                       # Number of inst fetches per cycle ((Count/Cycle))
system.cpu.icache.demandHits::cpu.inst        1959480                       # number of demand (read+write) hits (Count)
system.cpu.icache.demandHits::total           1959480                       # number of demand (read+write) hits (Count)
system.cpu.icache.overallHits::cpu.inst       1959480                       # number of overall hits (Count)
system.cpu.icache.overallHits::total          1959480                       # number of overall hits (Count)
system.cpu.icache.demandMisses::cpu.inst        41762                       # number of demand (read+write) misses (Count)
system.cpu.icache.demandMisses::total           41762                       # number of demand (read+write) misses (Count)
system.cpu.icache.overallMisses::cpu.inst        41762                       # number of overall misses (Count)
system.cpu.icache.overallMisses::total          41762                       # number of overall misses (Count)
system.cpu.icache.demandMissLatency::cpu.inst   1034950500                       # number of demand (read+write) miss ticks (Tick)
system.cpu.icache.demandMissLatency::total   1034950500                       # number of demand (read+write) miss ticks (Tick)
system.cpu.icache.overallMissLatency::cpu.inst   1034950500                       # number of overall miss ticks (Tick)
system.cpu.icache.overallMissLatency::total   1034950500                       # number of overall miss ticks (Tick)
system.cpu.icache.demandAccesses::cpu.inst      2001242                       # number of demand (read+write) accesses (Count)
system.cpu.icache.demandAccesses::total       2001242                       # number of demand (read+write) accesses (Count)
system.cpu.icache.overallAccesses::cpu.inst      2001242                       # number of overall (read+write) accesses (Count)
system.cpu.icache.overallAccesses::total      2001242                       # number of overall (read+write) accesses (Count)
system.cpu.icache.demandMissRate::cpu.inst     0.020868                       # miss rate for demand accesses (Ratio)
system.cpu.icache.demandMissRate::total      0.020868                       # miss rate for demand accesses (Ratio)
system.cpu.icache.overallMissRate::cpu.inst     0.020868                       # miss rate for overall accesses (Ratio)
system.cpu.icache.overallMissRate::total     0.020868                       # miss rate for overall accesses (Ratio)
system.cpu.icache.demandAvgMissLatency::cpu.inst 24782.110531                       # average overall miss latency in ticks ((Tick/Count))
system.cpu.icache.demandAvgMissLatency::total 24782.110531                       # average overall miss latency in ticks ((Tick/Count))
system.cpu.icache.overallAvgMissLatency::cpu.inst 24782.110531                       # average overall miss latency ((Tick/Count))
system.cpu.icache.overallAvgMissLatency::total 24782.110531                       # average overall miss latency ((Tick/Count))
system.cpu.icache.blockedCycles::no_mshrs            0                       # number of cycles access was blocked (Cycle)
system.cpu.icache.blockedCycles::no_targets            0                       # number of cycles access was blocked (Cycle)
system.cpu.icache.blockedCauses::no_mshrs            0                       # number of times access was blocked (Count)
system.cpu.icache.blockedCauses::no_targets            0                       # number of times access was blocked (Count)
system.cpu.icache.avgBlocked::no_mshrs            nan                       # average number of cycles each access was blocked ((Cycle/Count))
system.cpu.icache.avgBlocked::no_targets          nan                       # average number of cycles each access was blocked ((Cycle/Count))
system.cpu.icache.writebacks::writebacks        35289                       # number of writebacks (Count)
system.cpu.icache.writebacks::total             35289                       # number of writebacks (Count)
system.cpu.icache.demandMshrHits::cpu.inst         5961                       # number of demand (read+write) MSHR hits (Count)
system.cpu.icache.demandMshrHits::total          5961                       # number of demand (read+write) MSHR hits (Count)
system.cpu.icache.overallMshrHits::cpu.inst         5961                       # number of overall MSHR hits (Count)
system.cpu.icache.overallMshrHits::total         5961                       # number of overall MSHR hits (Count)
system.cpu.icache.demandMshrMisses::cpu.inst        35801                       # number of demand (read+write) MSHR misses (Count)
system.cpu.icache.demandMshrMisses::total        35801                       # number of demand (read+write) MSHR misses (Count)
system.cpu.icache.overallMshrMisses::cpu.inst        35801                       # number of overall MSHR misses (Count)
system.cpu.icache.overallMshrMisses::total        35801                       # number of overall MSHR misses (Count)
system.cpu.icache.demandMshrMissLatency::cpu.inst    884722000                       # number of demand (read+write) MSHR miss ticks (Tick)
system.cpu.icache.demandMshrMissLatency::total    884722000                       # number of demand (read+write) MSHR miss ticks (Tick)
system.cpu.icache.overallMshrMissLatency::cpu.inst    884722000                       # number of overall MSHR miss ticks (Tick)
system.cpu.icache.overallMshrMissLatency::total    884722000                       # number of overall MSHR miss ticks (Tick)
system.cpu.icache.demandMshrMissRate::cpu.inst     0.017889                       # mshr miss ratio for demand accesses (Ratio)
system.cpu.icache.demandMshrMissRate::total     0.017889                       # mshr miss ratio for demand accesses (Ratio)
system.cpu.icache.overallMshrMissRate::cpu.inst     0.017889                       # mshr miss ratio for overall accesses (Ratio)
system.cpu.icache.overallMshrMissRate::total     0.017889                       # mshr miss ratio for overall accesses (Ratio)
system.cpu.icache.demandAvgMshrMissLatency::cpu.inst 24712.214743                       # average overall mshr miss latency ((Tick/Count))
system.cpu.icache.demandAvgMshrMissLatency::total 24712.214743                       # average overall mshr miss latency ((Tick/Count))
system.cpu.icache.overallAvgMshrMissLatency::cpu.inst 24712.214743                       # average overall mshr miss latency ((Tick/Count))
system.cpu.icache.overallAvgMshrMissLatency::total 24712.214743                       # average overall mshr miss latency ((Tick/Count))
system.cpu.icache.replacements                  35289                       # number of replacements (Count)
system.cpu.icache.ReadReq.hits::cpu.inst      1959480                       # number of ReadReq hits (Count)
system.cpu.icache.ReadReq.hits::total         1959480                       # number of ReadReq hits (Count)
system.cpu.icache.ReadReq.misses::cpu.inst        41762                       # number of ReadReq misses (Count)
system.cpu.icache.ReadReq.misses::total         41762                       # number of ReadReq misses (Count)
system.cpu.icache.ReadReq.missLatency::cpu.inst   1034950500                       # number of ReadReq miss ticks (Tick)
system.cpu.icache.ReadReq.missLatency::total   1034950500                       # number of ReadReq miss ticks (Tick)
system.cpu.icache.ReadReq.accesses::cpu.inst      2001242                       # number of ReadReq accesses(hits+misses) (Count)
system.cpu.icache.ReadReq.accesses::total      2001242                       # number of ReadReq accesses(hits+misses) (Count)
system.cpu.icache.ReadReq.missRate::cpu.inst     0.020868                       # miss rate for ReadReq accesses (Ratio)
system.cpu.icache.ReadReq.missRate::total     0.020868                       # miss rate for ReadReq accesses (Ratio)
system.cpu.icache.ReadReq.avgMissLatency::cpu.inst 24782.110531                       # average ReadReq miss latency ((Tick/Count))
system.cpu.icache.ReadReq.avgMissLatency::total 24782.110531                       # average ReadReq miss latency ((Tick/Count))
system.cpu.icache.ReadReq.mshrHits::cpu.inst         5961                       # number of ReadReq MSHR hits (Count)
system.cpu.icache.ReadReq.mshrHits::total         5961                       # number of ReadReq MSHR hits (Count)
system.cpu.icache.ReadReq.mshrMisses::cpu.inst        35801                       # number of ReadReq MSHR misses (Count)
system.cpu.icache.ReadReq.mshrMisses::total        35801                       # number of ReadReq MSHR misses (Count)
system.cpu.icache.ReadReq.mshrMissLatency::cpu.inst    884722000                       # number of ReadReq MSHR miss ticks (Tick)
system.cpu.icache.ReadReq.mshrMissLatency::total    884722000                       # number of ReadReq MSHR miss ticks (Tick)
system.cpu.icache.ReadReq.mshrMissRate::cpu.inst     0.017889                       # mshr miss rate for ReadReq accesses (Ratio)
system.cpu.icache.ReadReq.mshrMissRate::total     0.017889                       # mshr miss rate for ReadReq accesses (Ratio)
system.cpu.icache.ReadReq.avgMshrMissLatency::cpu.inst 24712.214743                       # average ReadReq mshr miss latency ((Tick/Count))
system.cpu.icache.ReadReq.avgMshrMissLatency::total 24712.214743                       # average ReadReq mshr miss latency ((Tick/Count))
system.cpu.icache.power_state.pwrStateResidencyTicks::UNDEFINED   5104659000                       # Cumulative time (in ticks) in various power states (Tick)
system.cpu.icache.tags.tagsInUse           487.605319                       # Average ticks per tags in use ((Tick/Count))
system.cpu.icache.tags.totalRefs              1995280                       # Total number of references to valid blocks. (Count)
system.cpu.icache.tags.sampledRefs              35800                       # Sample count of references to valid blocks. (Count)
system.cpu.icache.tags.avgRefs              55.734078                       # Average number of references to valid blocks. ((Count/Count))
system.cpu.icache.tags.warmupTick               77000                       # The tick when the warmup percentage was hit. (Tick)
system.cpu.icache.tags.occupancies::cpu.inst   487.605319                       # Average occupied blocks per tick, per requestor ((Count/Tick))
system.cpu.icache.tags.avgOccs::cpu.inst     0.952354                       # Average percentage of cache occupancy ((Ratio/Tick))
system.cpu.icache.tags.avgOccs::total        0.952354                       # Average percentage of cache occupancy ((Ratio/Tick))
system.cpu.icache.tags.occupanciesTaskId::1024          506                       # Occupied blocks per task id (Count)
system.cpu.icache.tags.ageTaskId_1024::0            4                       # Occupied blocks per task id, per block age (Count)
system.cpu.icache.tags.ageTaskId_1024::2            9                       # Occupied blocks per task id, per block age (Count)
system.cpu.icache.tags.ageTaskId_1024::3          493                       # Occupied blocks per task id, per block age (Count)
system.cpu.icache.tags.ratioOccsTaskId::1024     0.988281                       # Ratio of occupied blocks and all blocks, per task id (Ratio)
system.cpu.icache.tags.tagAccesses            4038284                       # Number of tag accesses (Count)
system.cpu.icache.tags.dataAccesses           4038284                       # Number of data accesses (Count)
system.cpu.icache.tags.power_state.pwrStateResidencyTicks::UNDEFINED   5104659000                       # Cumulative time (in ticks) in various power states (Tick)
system.cpu.iew.idleCycles                           0                       # Number of cycles IEW is idle (Cycle)
system.cpu.iew.squashCycles                    133233                       # Number of cycles IEW is squashing (Cycle)
system.cpu.iew.blockCycles                    1399818                       # Number of cycles IEW is blocking (Cycle)
system.cpu.iew.unblockCycles                    68904                       # Number of cycles IEW is unblocking (Cycle)
system.cpu.iew.dispatchedInsts               23410895                       # Number of instructions dispatched to IQ (Count)
system.cpu.iew.dispSquashedInsts                 5495                       # Number of squashed instructions skipped by dispatch (Count)
system.cpu.iew.dispLoadInsts                  2824452                       # Number of dispatched load instructions (Count)
system.cpu.iew.dispStoreInsts                 1295583                       # Number of dispatched store instructions (Count)
system.cpu.iew.dispNonSpecInsts                   232                       # Number of dispatched non-speculative instructions (Count)
system.cpu.iew.iqFullEvents                      6457                       # Number of times the IQ has become full, causing a stall (Count)
system.cpu.iew.lsqFullEvents                    56280                       # Number of times the LSQ has become full, causing a stall (Count)
system.cpu.iew.memOrderViolationEvents            530                       # Number of memory order violations (Count)
system.cpu.iew.predictedTakenIncorrect          27608                       # Number of branches that were predicted taken incorrectly (Count)
system.cpu.iew.predictedNotTakenIncorrect        37030                       # Number of branches that were predicted not taken incorrectly (Count)
system.cpu.iew.branchMispredicts                64638                       # Number of branch mispredicts detected at execute (Count)
system.cpu.iew.mispredictedLVP                  97316                       # mispredictedLVP (Count)
system.cpu.iew.LvpCorrect                     1258550                       # LvpCorrect (Count)
system.cpu.iew.instsToCommit                 21287273                       # Cumulative count of insts sent to commit (Count)
system.cpu.iew.writebackCount                21227661                       # Cumulative count of insts written-back (Count)
system.cpu.iew.producerInst                  16031982                       # Number of instructions producing a value (Count)
system.cpu.iew.consumerInst                  27582719                       # Number of instructions consuming a value (Count)
system.cpu.iew.wbRate                        2.079244                       # Insts written-back per cycle ((Count/Cycle))
system.cpu.iew.wbFanout                      0.581233                       # Average fanout of values written-back ((Count/Count))
system.cpu.interrupts.clk_domain.clock           8000                       # Clock period in ticks (Tick)
system.cpu.itb_walker_cache.blockedCycles::no_mshrs            0                       # number of cycles access was blocked (Cycle)
system.cpu.itb_walker_cache.blockedCycles::no_targets            0                       # number of cycles access was blocked (Cycle)
system.cpu.itb_walker_cache.blockedCauses::no_mshrs            0                       # number of times access was blocked (Count)
system.cpu.itb_walker_cache.blockedCauses::no_targets            0                       # number of times access was blocked (Count)
system.cpu.itb_walker_cache.avgBlocked::no_mshrs          nan                       # average number of cycles each access was blocked ((Cycle/Count))
system.cpu.itb_walker_cache.avgBlocked::no_targets          nan                       # average number of cycles each access was blocked ((Cycle/Count))
system.cpu.itb_walker_cache.replacements            0                       # number of replacements (Count)
system.cpu.itb_walker_cache.power_state.pwrStateResidencyTicks::UNDEFINED   5104659000                       # Cumulative time (in ticks) in various power states (Tick)
system.cpu.itb_walker_cache.tags.tagsInUse            0                       # Average ticks per tags in use ((Tick/Count))
system.cpu.itb_walker_cache.tags.totalRefs            0                       # Total number of references to valid blocks. (Count)
system.cpu.itb_walker_cache.tags.sampledRefs            0                       # Sample count of references to valid blocks. (Count)
system.cpu.itb_walker_cache.tags.avgRefs          nan                       # Average number of references to valid blocks. ((Count/Count))
system.cpu.itb_walker_cache.tags.warmupTick            0                       # The tick when the warmup percentage was hit. (Tick)
system.cpu.itb_walker_cache.tags.tagAccesses            0                       # Number of tag accesses (Count)
system.cpu.itb_walker_cache.tags.dataAccesses            0                       # Number of data accesses (Count)
system.cpu.itb_walker_cache.tags.power_state.pwrStateResidencyTicks::UNDEFINED   5104659000                       # Cumulative time (in ticks) in various power states (Tick)
system.cpu.lsq0.forwLoads                      299150                       # Number of loads that had data forwarded from stores (Count)
system.cpu.lsq0.squashedLoads                  641788                       # Number of loads squashed (Count)
system.cpu.lsq0.ignoredResponses                 1122                       # Number of memory responses ignored because the instruction is squashed (Count)
system.cpu.lsq0.memOrderViolation                 530                       # Number of memory ordering violations (Count)
system.cpu.lsq0.squashedStores                 229414                       # Number of stores squashed (Count)
system.cpu.lsq0.rescheduledLoads                 1441                       # Number of loads that were rescheduled (Count)
system.cpu.lsq0.blockedByCache                    524                       # Number of times an access to memory failed due to the cache being blocked (Count)
system.cpu.lsq0.loadToUse::samples            2182663                       # Distribution of cycle latency between the first time a load is issued and its completion (Unspecified)
system.cpu.lsq0.loadToUse::mean              5.514479                       # Distribution of cycle latency between the first time a load is issued and its completion (Unspecified)
system.cpu.lsq0.loadToUse::stdev            19.958702                       # Distribution of cycle latency between the first time a load is issued and its completion (Unspecified)
system.cpu.lsq0.loadToUse::0-9                2140314     98.06%     98.06% # Distribution of cycle latency between the first time a load is issued and its completion (Unspecified)
system.cpu.lsq0.loadToUse::10-19                 1288      0.06%     98.12% # Distribution of cycle latency between the first time a load is issued and its completion (Unspecified)
system.cpu.lsq0.loadToUse::20-29                  491      0.02%     98.14% # Distribution of cycle latency between the first time a load is issued and its completion (Unspecified)
system.cpu.lsq0.loadToUse::30-39                  292      0.01%     98.15% # Distribution of cycle latency between the first time a load is issued and its completion (Unspecified)
system.cpu.lsq0.loadToUse::40-49                  310      0.01%     98.17% # Distribution of cycle latency between the first time a load is issued and its completion (Unspecified)
system.cpu.lsq0.loadToUse::50-59                  296      0.01%     98.18% # Distribution of cycle latency between the first time a load is issued and its completion (Unspecified)
system.cpu.lsq0.loadToUse::60-69                  424      0.02%     98.20% # Distribution of cycle latency between the first time a load is issued and its completion (Unspecified)
[...]
system.mem_ctrls.dram.perBankWrBursts::2          323                       # Per bank write bursts (Count)
system.mem_ctrls.dram.perBankWrBursts::3          518                       # Per bank write bursts (Count)
system.mem_ctrls.dram.perBankWrBursts::4          396                       # Per bank write bursts (Count)
system.mem_ctrls.dram.perBankWrBursts::5          155                       # Per bank write bursts (Count)
system.mem_ctrls.dram.perBankWrBursts::6          315                       # Per bank write bursts (Count)
system.mem_ctrls.dram.perBankWrBursts::7          298                       # Per bank write bursts (Count)
system.mem_ctrls.dram.perBankWrBursts::8          267                       # Per bank write bursts (Count)
system.mem_ctrls.dram.perBankWrBursts::9          489                       # Per bank write bursts (Count)
system.mem_ctrls.dram.perBankWrBursts::10          404                       # Per bank write bursts (Count)
system.mem_ctrls.dram.perBankWrBursts::11          275                       # Per bank write bursts (Count)
system.mem_ctrls.dram.perBankWrBursts::12          277                       # Per bank write bursts (Count)
system.mem_ctrls.dram.perBankWrBursts::13          155                       # Per bank write bursts (Count)
system.mem_ctrls.dram.perBankWrBursts::14          258                       # Per bank write bursts (Count)
system.mem_ctrls.dram.perBankWrBursts::15          256                       # Per bank write bursts (Count)
system.mem_ctrls.dram.totQLat               413923250                       # Total ticks spent queuing (Tick)
system.mem_ctrls.dram.totBusLat             114900000                       # Total ticks spent in databus transfers (Tick)
system.mem_ctrls.dram.totMemAccLat          844798250                       # Total ticks spent from burst creation until serviced by the DRAM (Tick)
system.mem_ctrls.dram.avgQLat                18012.33                       # Average queueing delay per DRAM burst ((Tick/Count))
system.mem_ctrls.dram.avgBusLat               5000.00                       # Average bus latency per DRAM burst ((Tick/Count))
system.mem_ctrls.dram.avgMemAccLat           36762.33                       # Average memory access latency per DRAM burst ((Tick/Count))
system.mem_ctrls.dram.readRowHits               10867                       # Number of row buffer hits during reads (Count)
system.mem_ctrls.dram.writeRowHits               3611                       # Number of row buffer hits during writes (Count)
system.mem_ctrls.dram.readRowHitRate            47.29                       # Row buffer hit rate for reads (Ratio)
system.mem_ctrls.dram.writeRowHitRate           73.71                       # Row buffer hit rate for writes (Ratio)
system.mem_ctrls.dram.bytesPerActivate::samples        13398                       # Bytes accessed per row activation (Byte)
system.mem_ctrls.dram.bytesPerActivate::mean   133.158979                       # Bytes accessed per row activation (Byte)
system.mem_ctrls.dram.bytesPerActivate::gmean    97.703220                       # Bytes accessed per row activation (Byte)
system.mem_ctrls.dram.bytesPerActivate::stdev   161.269226                       # Bytes accessed per row activation (Byte)
system.mem_ctrls.dram.bytesPerActivate::0-127         8351     62.33%     62.33% # Bytes accessed per row activation (Byte)
system.mem_ctrls.dram.bytesPerActivate::128-255         3565     26.61%     88.94% # Bytes accessed per row activation (Byte)
system.mem_ctrls.dram.bytesPerActivate::256-383          634      4.73%     93.67% # Bytes accessed per row activation (Byte)
system.mem_ctrls.dram.bytesPerActivate::384-511          299      2.23%     95.90% # Bytes accessed per row activation (Byte)
system.mem_ctrls.dram.bytesPerActivate::512-639          149      1.11%     97.01% # Bytes accessed per row activation (Byte)
system.mem_ctrls.dram.bytesPerActivate::640-767           96      0.72%     97.73% # Bytes accessed per row activation (Byte)
system.mem_ctrls.dram.bytesPerActivate::768-895           52      0.39%     98.12% # Bytes accessed per row activation (Byte)
system.mem_ctrls.dram.bytesPerActivate::896-1023           40      0.30%     98.42% # Bytes accessed per row activation (Byte)
system.mem_ctrls.dram.bytesPerActivate::1024-1151          212      1.58%    100.00% # Bytes accessed per row activation (Byte)
system.mem_ctrls.dram.bytesPerActivate::total        13398                       # Bytes accessed per row activation (Byte)
system.mem_ctrls.dram.bytesRead               1470720                       # Total bytes read (Byte)
system.mem_ctrls.dram.bytesWritten             313536                       # Total bytes written (Byte)
system.mem_ctrls.dram.avgRdBW              288.113271                       # Average DRAM read bandwidth in MiBytes/s ((Byte/Second))
system.mem_ctrls.dram.avgWrBW               61.421537                       # Average DRAM write bandwidth in MiBytes/s ((Byte/Second))
system.mem_ctrls.dram.peakBW                 12800.00                       # Theoretical peak bandwidth in MiByte/s ((Byte/Second))
system.mem_ctrls.dram.busUtil                    2.73                       # Data bus utilization in percentage (Ratio)
system.mem_ctrls.dram.busUtilRead                2.25                       # Data bus utilization in percentage for reads (Ratio)
system.mem_ctrls.dram.busUtilWrite               0.48                       # Data bus utilization in percentage for writes (Ratio)
system.mem_ctrls.dram.pageHitRate               51.93                       # Row buffer hit rate, read and write combined (Ratio)
system.mem_ctrls.dram.power_state.pwrStateResidencyTicks::UNDEFINED   5104659000                       # Cumulative time (in ticks) in various power states (Tick)
system.mem_ctrls.dram.rank0.actEnergy        50558340                       # Energy for activate commands per rank (pJ) (Joule)
system.mem_ctrls.dram.rank0.preEnergy        26868600                       # Energy for precharge commands per rank (pJ) (Joule)
system.mem_ctrls.dram.rank0.readEnergy       86465400                       # Energy for read commands per rank (pJ) (Joule)
system.mem_ctrls.dram.rank0.writeEnergy      13143960                       # Energy for write commands per rank (pJ) (Joule)
system.mem_ctrls.dram.rank0.refreshEnergy 402589200.000000                       # Energy for refresh commands per rank (pJ) (Joule)
system.mem_ctrls.dram.rank0.actBackEnergy   1944858240                       # Energy for active background per rank (pJ) (Joule)
system.mem_ctrls.dram.rank0.preBackEnergy    322414080                       # Energy for precharge background per rank (pJ) (Joule)
system.mem_ctrls.dram.rank0.actPowerDownEnergy            0                       # Energy for active power-down per rank (pJ) (Joule)
system.mem_ctrls.dram.rank0.prePowerDownEnergy            0                       # Energy for precharge power-down per rank (pJ) (Joule)
system.mem_ctrls.dram.rank0.selfRefreshEnergy            0                       # Energy for self refresh per rank (pJ) (Joule)
system.mem_ctrls.dram.rank0.totalEnergy    2846897820                       # Total energy per rank (pJ) (Joule)
system.mem_ctrls.dram.rank0.averagePower   557.705778                       # Core power per rank (mW) (Watt)
system.mem_ctrls.dram.rank0.totalIdleTime            0                       # Total Idle time Per DRAM Rank (Tick)
system.mem_ctrls.dram.rank0.pwrStateTime::IDLE    820399750                       # Time in different power states (Tick)
system.mem_ctrls.dram.rank0.pwrStateTime::REF    170300000                       # Time in different power states (Tick)
system.mem_ctrls.dram.rank0.pwrStateTime::SREF            0                       # Time in different power states (Tick)
system.mem_ctrls.dram.rank0.pwrStateTime::PRE_PDN            0                       # Time in different power states (Tick)
system.mem_ctrls.dram.rank0.pwrStateTime::ACT   4113959250                       # Time in different power states (Tick)
system.mem_ctrls.dram.rank0.pwrStateTime::ACT_PDN            0                       # Time in different power states (Tick)
system.mem_ctrls.dram.rank1.actEnergy        45124800                       # Energy for activate commands per rank (pJ) (Joule)
system.mem_ctrls.dram.rank1.preEnergy        23976810                       # Energy for precharge commands per rank (pJ) (Joule)
system.mem_ctrls.dram.rank1.readEnergy       77611800                       # Energy for read commands per rank (pJ) (Joule)
system.mem_ctrls.dram.rank1.writeEnergy      12428820                       # Energy for write commands per rank (pJ) (Joule)
system.mem_ctrls.dram.rank1.refreshEnergy 402589200.000000                       # Energy for refresh commands per rank (pJ) (Joule)
system.mem_ctrls.dram.rank1.actBackEnergy   1657417500                       # Energy for active background per rank (pJ) (Joule)
system.mem_ctrls.dram.rank1.preBackEnergy    564469440                       # Energy for precharge background per rank (pJ) (Joule)
system.mem_ctrls.dram.rank1.actPowerDownEnergy            0                       # Energy for active power-down per rank (pJ) (Joule)
system.mem_ctrls.dram.rank1.prePowerDownEnergy            0                       # Energy for precharge power-down per rank (pJ) (Joule)
system.mem_ctrls.dram.rank1.selfRefreshEnergy            0                       # Energy for self refresh per rank (pJ) (Joule)
system.mem_ctrls.dram.rank1.totalEnergy    2783618370                       # Total energy per rank (pJ) (Joule)
system.mem_ctrls.dram.rank1.averagePower   545.309367                       # Core power per rank (mW) (Watt)
system.mem_ctrls.dram.rank1.totalIdleTime            0                       # Total Idle time Per DRAM Rank (Tick)
system.mem_ctrls.dram.rank1.pwrStateTime::IDLE   1451843750                       # Time in different power states (Tick)
system.mem_ctrls.dram.rank1.pwrStateTime::REF    170300000                       # Time in different power states (Tick)
system.mem_ctrls.dram.rank1.pwrStateTime::SREF            0                       # Time in different power states (Tick)
system.mem_ctrls.dram.rank1.pwrStateTime::PRE_PDN            0                       # Time in different power states (Tick)
system.mem_ctrls.dram.rank1.pwrStateTime::ACT   3482515250                       # Time in different power states (Tick)
system.mem_ctrls.dram.rank1.pwrStateTime::ACT_PDN            0                       # Time in different power states (Tick)
system.mem_ctrls.power_state.pwrStateResidencyTicks::UNDEFINED   5104659000                       # Cumulative time (in ticks) in various power states (Tick)
system.membus.transDist::ReadResp               53385                       # Transaction distribution (Count)
system.membus.transDist::WritebackDirty          3101                       # Transaction distribution (Count)
system.membus.transDist::WritebackClean         35289                       # Transaction distribution (Count)
system.membus.transDist::CleanEvict             16928                       # Transaction distribution (Count)
system.membus.transDist::UpgradeReq                 5                       # Transaction distribution (Count)
system.membus.transDist::ReadExReq               3468                       # Transaction distribution (Count)
system.membus.transDist::ReadExResp              3468                       # Transaction distribution (Count)
system.membus.transDist::ReadCleanReq           35801                       # Transaction distribution (Count)
system.membus.transDist::ReadSharedReq          17585                       # Transaction distribution (Count)
system.membus.pktCount_system.cpu.icache.mem_side_port::system.mem_ctrls.port       106885                       # Packet count per connected requestor and responder (Count)
system.membus.pktCount_system.cpu.icache.mem_side_port::total       106885                       # Packet count per connected requestor and responder (Count)
system.membus.pktCount_system.cpu.dcache.mem_side_port::system.mem_ctrls.port        62140                       # Packet count per connected requestor and responder (Count)
system.membus.pktCount_system.cpu.dcache.mem_side_port::total        62140                       # Packet count per connected requestor and responder (Count)
system.membus.pktCount::total                  169025                       # Packet count per connected requestor and responder (Count)
system.membus.pktSize_system.cpu.icache.mem_side_port::system.mem_ctrls.port      4549376                       # Cumulative packet size per connected requestor and responder (Byte)
system.membus.pktSize_system.cpu.icache.mem_side_port::total      4549376                       # Cumulative packet size per connected requestor and responder (Byte)
system.membus.pktSize_system.cpu.dcache.mem_side_port::system.mem_ctrls.port      1545856                       # Cumulative packet size per connected requestor and responder (Byte)
system.membus.pktSize_system.cpu.dcache.mem_side_port::total      1545856                       # Cumulative packet size per connected requestor and responder (Byte)
system.membus.pktSize::total                  6095232                       # Cumulative packet size per connected requestor and responder (Byte)
system.membus.snoops                                5                       # Total snoops (Count)
system.membus.snoopTraffic                        320                       # Total snoop traffic (Byte)
system.membus.snoopFanout::samples              56859                       # Request fanout histogram (Count)
system.membus.snoopFanout::mean              0.000246                       # Request fanout histogram (Count)
system.membus.snoopFanout::stdev             0.015690                       # Request fanout histogram (Count)
system.membus.snoopFanout::underflows               0      0.00%      0.00% # Request fanout histogram (Count)
system.membus.snoopFanout::0                    56845     99.98%     99.98% # Request fanout histogram (Count)
system.membus.snoopFanout::1                       14      0.02%    100.00% # Request fanout histogram (Count)
system.membus.snoopFanout::2                        0      0.00%    100.00% # Request fanout histogram (Count)
system.membus.snoopFanout::3                        0      0.00%    100.00% # Request fanout histogram (Count)
system.membus.snoopFanout::4                        0      0.00%    100.00% # Request fanout histogram (Count)
system.membus.snoopFanout::overflows                0      0.00%    100.00% # Request fanout histogram (Count)
system.membus.snoopFanout::min_value                0                       # Request fanout histogram (Count)
system.membus.snoopFanout::max_value                1                       # Request fanout histogram (Count)
system.membus.snoopFanout::total                56859                       # Request fanout histogram (Count)
system.membus.power_state.pwrStateResidencyTicks::UNDEFINED   5104659000                       # Cumulative time (in ticks) in various power states (Tick)
system.membus.reqLayer2.occupancy           275732000                       # Layer occupancy (ticks) (Tick)
system.membus.reqLayer2.utilization               0.1                       # Layer utilization (Ratio)
system.membus.respLayer1.occupancy          179655000                       # Layer occupancy (ticks) (Tick)
system.membus.respLayer1.utilization              0.0                       # Layer utilization (Ratio)
system.membus.respLayer2.occupancy          114674750                       # Layer occupancy (ticks) (Tick)
system.membus.respLayer2.utilization              0.0                       # Layer utilization (Ratio)
system.membus.snoop_filter.totRequests         112177                       # Total number of requests made to the snoop filter. (Count)
system.membus.snoop_filter.hitSingleRequests        55320                       # Number of requests hitting in the snoop filter with a single holder of the requested data. (Count)
system.membus.snoop_filter.hitMultiRequests           12                       # Number of requests hitting in the snoop filter with multiple (>1) holders of the requested data. (Count)
system.membus.snoop_filter.totSnoops                0                       # Total number of snoops made to the snoop filter. (Count)
system.membus.snoop_filter.hitSingleSnoops            0                       # Number of snoops hitting in the snoop filter with a single holder of the requested data. (Count)
system.membus.snoop_filter.hitMultiSnoops            0                       # Number of snoops hitting in the snoop filter with multiple (>1) holders of the requested data. (Count)
system.voltage_domain.voltage                       1                       # Voltage in Volts (Volt)
system.workload.inst.arm                            0                       # number of arm instructions executed (Count)
system.workload.inst.quiesce                        0                       # number of quiesce instructions executed (Count)
system.cpu.loadValPred.constant_verification_unit.constLoadHits       451605                       # Number of loads marked constant that hit in the CVU CAM (Unspecified)
system.cpu.loadValPred.constant_verification_unit.constLoadMisses       427131                       # Number of loads marked constant that missed in the CVU CAM (Unspecified)
system.cpu.loadValPred.constant_verification_unit.numCAMReplacements        55485                       # Number of CVU CAM entries replaced (Unspecified)
system.cpu.loadValPred.constant_verification_unit.numLoadAccesses       878736                       # Number of loads marked constant which accessed the CVU (Unspecified)
system.cpu.loadValPred.constant_verification_unit.numStoreAccesses      1240919                       # Number of store instructions which accessed the CVU (Unspecified)
system.cpu.loadValPred.constant_verification_unit.numStoreHits       372234                       # Number of stores that hit in the CVU CAM (Unspecified)
system.cpu.loadValPred.constant_verification_unit.numStoreMisses       868685                       # Number of stores that missed in the CVU CAM (Unspecified)
system.cpu.loadValPred.correctTotal           1258550                       # Number predictions corrects for predictable verification (Unspecified)
system.cpu.loadValPred.numConstLoads           920029                       # Number of loads classified as constant (Unspecified)
system.cpu.loadValPred.numConstLoadsCorrect       451605                       # Number of constant loads correctly predicted (Unspecified)
system.cpu.loadValPred.numConstLoadsMispredicted       427131                       # Number of constant loads incorrectly predicted (Unspecified)
system.cpu.loadValPred.numConstValOne           43918                       # Number of constant loads with value 1 (Unspecified)
system.cpu.loadValPred.numConstValZero         118543                       # Number of constant loads with value 0 (Unspecified)
system.cpu.loadValPred.numPredictableLoads       502914                       # Number of loads classified as predictable (Unspecified)
system.cpu.loadValPred.numPredictableLoadsCorrect       427097                       # Number of loads correctly classified as predictable (Unspecified)
system.cpu.loadValPred.numPredictableLoadsIncorrect        50033                       # Number of loads incorrectly classified as predictable (Unspecified)
system.cpu.loadValPred.totalLoads             2594752                       # Total loads processed by the Load value predictor (Unspecified)
system.cpu.loadValPred.valueLocalityNumerator      1439841                       # Number predictions corrects (Unspecified)

---------- End Simulation Statistics   ----------
