
---------- Begin Simulation Statistics ----------
simSeconds                                   0.088282                       # Number of seconds simulated (Second)
simTicks                                  88282490500                       # Number of ticks simulated (Tick)
finalTick                                 88282490500                       # Number of ticks from beginning of simulation (restored from checkpoints and never reset) (Tick)
simFreq                                  1000000000000                       # The number of ticks per simulated second ((Tick/Second))
hostSeconds                                    353.57                       # Real time elapsed on the host (Second)
hostTickRate                                249690400                       # The number of ticks simulated per host second (ticks/s) ((Tick/Second))
hostMemory                                    8717104                       # Number of bytes of host memory used (Byte)
simInsts                                     10000000                       # Number of instructions simulated (Count)
simOps                                       19429302                       # Number of ops (including micro ops) simulated (Count)
hostInstRate                                    28283                       # Simulator instruction rate (inst/s) ((Count/Second))
hostOpRate                                      54952                       # Simulator op (including micro ops) rate (op/s) ((Count/Second))
system.clk_domain.clock                          1000                       # Clock period in ticks (Tick)
system.cpu.numCycles                        176564982                       # Number of cpu cycles simulated (Cycle)
system.cpu.numWorkItemsStarted                      0                       # Number of work items this cpu started (Count)
system.cpu.numWorkItemsCompleted                    0                       # Number of work items this cpu completed (Count)
system.cpu.instsAdded                        21336287                       # Number of instructions added to the IQ (excludes non-spec) (Count)
system.cpu.nonSpecInstsAdded                       71                       # Number of non-speculative instructions added to the IQ (Count)
system.cpu.instsIssued                       20926621                       # Number of instructions issued (Count)
system.cpu.squashedInstsIssued                   1366                       # Number of squashed instructions issued (Count)
system.cpu.squashedInstsExamined              1907052                       # Number of squashed instructions iterated over during squash; mainly for profiling (Count)
system.cpu.squashedOperandsExamined           4737867                       # Number of squashed operands that are examined and possibly removed from graph (Count)
system.cpu.squashedNonSpecRemoved                  35                       # Number of squashed non-spec instructions that were removed (Count)
system.cpu.numIssuedDist::samples           176514684                       # Number of insts issued each cycle (Count)
system.cpu.numIssuedDist::mean               0.118555                       # Number of insts issued each cycle (Count)
system.cpu.numIssuedDist::stdev              0.481787                       # Number of insts issued each cycle (Count)
system.cpu.numIssuedDist::underflows                0      0.00%      0.00% # Number of insts issued each cycle (Count)
system.cpu.numIssuedDist::0                 161136663     91.29%     91.29% # Number of insts issued each cycle (Count)
system.cpu.numIssuedDist::1                  13070348      7.40%     98.69% # Number of insts issued each cycle (Count)
system.cpu.numIssuedDist::2                    586677      0.33%     99.03% # Number of insts issued each cycle (Count)
system.cpu.numIssuedDist::3                    735426      0.42%     99.44% # Number of insts issued each cycle (Count)
system.cpu.numIssuedDist::4                    737444      0.42%     99.86% # Number of insts issued each cycle (Count)
system.cpu.numIssuedDist::5                     70126      0.04%     99.90% # Number of insts issued each cycle (Count)
system.cpu.numIssuedDist::6                     94817      0.05%     99.95% # Number of insts issued each cycle (Count)
system.cpu.numIssuedDist::7                     58131      0.03%     99.99% # Number of insts issued each cycle (Count)
system.cpu.numIssuedDist::8                     25052      0.01%    100.00% # Number of insts issued each cycle (Count)
system.cpu.numIssuedDist::overflows                 0      0.00%    100.00% # Number of insts issued each cycle (Count)
system.cpu.numIssuedDist::min_value                 0                       # Number of insts issued each cycle (Count)
system.cpu.numIssuedDist::max_value                 8                       # Number of insts issued each cycle (Count)
system.cpu.numIssuedDist::total             176514684                       # Number of insts issued each cycle (Count)
system.cpu.statFuBusy::No_OpClass                   0      0.00%      0.00% # attempts to use FU when none available (Count)
system.cpu.statFuBusy::IntAlu                    6161      8.99%      8.99% # attempts to use FU when none available (Count)
system.cpu.statFuBusy::IntMult                      0      0.00%      8.99% # attempts to use FU when none available (Count)
system.cpu.statFuBusy::IntDiv                       0      0.00%      8.99% # attempts to use FU when none available (Count)
system.cpu.statFuBusy::FloatAdd                     0      0.00%      8.99% # attempts to use FU when none available (Count)
system.cpu.statFuBusy::FloatCmp                     0      0.00%      8.99% # attempts to use FU when none available (Count)
system.cpu.statFuBusy::FloatCvt                     0      0.00%      8.99% # attempts to use FU when none available (Count)
system.cpu.statFuBusy::FloatMult                    0      0.00%      8.99% # attempts to use FU when none available (Count)
system.cpu.statFuBusy::FloatMultAcc                 0      0.00%      8.99% # attempts to use FU when none available (Count)
system.cpu.statFuBusy::FloatDiv                     0      0.00%      8.99% # attempts to use FU when none available (Count)
system.cpu.statFuBusy::FloatMisc                    0      0.00%      8.99% # attempts to use FU when none available (Count)
system.cpu.statFuBusy::FloatSqrt                    0      0.00%      8.99% # attempts to use FU when none available (Count)
system.cpu.statFuBusy::SimdAdd                      0      0.00%      8.99% # attempts to use FU when none available (Count)
system.cpu.statFuBusy::SimdAddAcc                   0      0.00%      8.99% # attempts to use FU when none available (Count)
system.cpu.statFuBusy::SimdAlu                      0      0.00%      8.99% # attempts to use FU when none available (Count)
system.cpu.statFuBusy::SimdCmp                      0      0.00%      8.99% # attempts to use FU when none available (Count)
system.cpu.statFuBusy::SimdCvt                      0      0.00%      8.99% # attempts to use FU when none available (Count)
system.cpu.statFuBusy::SimdMisc                     0      0.00%      8.99% # attempts to use FU when none available (Count)
system.cpu.statFuBusy::SimdMult                     0      0.00%      8.99% # attempts to use FU when none available (Count)
system.cpu.statFuBusy::SimdMultAcc                  0      0.00%      8.99% # attempts to use FU when none available (Count)
system.cpu.statFuBusy::SimdShift                    0      0.00%      8.99% # attempts to use FU when none available (Count)
system.cpu.statFuBusy::SimdShiftAcc                 0      0.00%      8.99% # attempts to use FU when none available (Count)
system.cpu.statFuBusy::SimdDiv                      0      0.00%      8.99% # attempts to use FU when none available (Count)
system.cpu.statFuBusy::SimdSqrt                     0      0.00%      8.99% # attempts to use FU when none available (Count)
system.cpu.statFuBusy::SimdFloatAdd                 0      0.00%      8.99% # attempts to use FU when none available (Count)
system.cpu.statFuBusy::SimdFloatAlu                 0      0.00%      8.99% # attempts to use FU when none available (Count)
system.cpu.statFuBusy::SimdFloatCmp                 0      0.00%      8.99% # attempts to use FU when none available (Count)
system.cpu.statFuBusy::SimdFloatCvt                 0      0.00%      8.99% # attempts to use FU when none available (Count)
system.cpu.statFuBusy::SimdFloatDiv                 0      0.00%      8.99% # attempts to use FU when none available (Count)
system.cpu.statFuBusy::SimdFloatMisc                0      0.00%      8.99% # attempts to use FU when none available (Count)
system.cpu.statFuBusy::SimdFloatMult                0      0.00%      8.99% # attempts to use FU when none available (Count)
system.cpu.statFuBusy::SimdFloatMultAcc             0      0.00%      8.99% # attempts to use FU when none available (Count)
system.cpu.statFuBusy::SimdFloatSqrt                0      0.00%      8.99% # attempts to use FU when none available (Count)
system.cpu.statFuBusy::SimdReduceAdd                0      0.00%      8.99% # attempts to use FU when none available (Count)
system.cpu.statFuBusy::SimdReduceAlu                0      0.00%      8.99% # attempts to use FU when none available (Count)
system.cpu.statFuBusy::SimdReduceCmp                0      0.00%      8.99% # attempts to use FU when none available (Count)
system.cpu.statFuBusy::SimdFloatReduceAdd            0      0.00%      8.99% # attempts to use FU when none available (Count)
system.cpu.statFuBusy::SimdFloatReduceCmp            0      0.00%      8.99% # attempts to use FU when none available (Count)
system.cpu.statFuBusy::SimdAes                      0      0.00%      8.99% # attempts to use FU when none available (Count)
system.cpu.statFuBusy::SimdAesMix                   0      0.00%      8.99% # attempts to use FU when none available (Count)
system.cpu.statFuBusy::SimdSha1Hash                 0      0.00%      8.99% # attempts to use FU when none available (Count)
system.cpu.statFuBusy::SimdSha1Hash2                0      0.00%      8.99% # attempts to use FU when none available (Count)
system.cpu.statFuBusy::SimdSha256Hash               0      0.00%      8.99% # attempts to use FU when none available (Count)
system.cpu.statFuBusy::SimdSha256Hash2              0      0.00%      8.99% # attempts to use FU when none available (Count)
system.cpu.statFuBusy::SimdShaSigma2                0      0.00%      8.99% # attempts to use FU when none available (Count)
system.cpu.statFuBusy::SimdShaSigma3                0      0.00%      8.99% # attempts to use FU when none available (Count)
system.cpu.statFuBusy::SimdPredAlu                  0      0.00%      8.99% # attempts to use FU when none available (Count)
system.cpu.statFuBusy::MemRead                  21147     30.86%     39.85% # attempts to use FU when none available (Count)
system.cpu.statFuBusy::MemWrite                   715      1.04%     40.89% # attempts to use FU when none available (Count)
system.cpu.statFuBusy::FloatMemRead                59      0.09%     40.98% # attempts to use FU when none available (Count)
system.cpu.statFuBusy::FloatMemWrite            40446     59.02%    100.00% # attempts to use FU when none available (Count)
system.cpu.statFuBusy::IprAccess                    0      0.00%    100.00% # attempts to use FU when none available (Count)
system.cpu.statFuBusy::InstPrefetch                 0      0.00%    100.00% # attempts to use FU when none available (Count)
system.cpu.statIssuedInstType_0::No_OpClass         1626      0.01%      0.01% # Number of instructions issued per FU type, per thread (Count)
system.cpu.statIssuedInstType_0::IntAlu       9478425     45.29%     45.30% # Number of instructions issued per FU type, per thread (Count)
system.cpu.statIssuedInstType_0::IntMult          659      0.00%     45.30% # Number of instructions issued per FU type, per thread (Count)
system.cpu.statIssuedInstType_0::IntDiv          1482      0.01%     45.31% # Number of instructions issued per FU type, per thread (Count)
system.cpu.statIssuedInstType_0::FloatAdd           39      0.00%     45.31% # Number of instructions issued per FU type, per thread (Count)
system.cpu.statIssuedInstType_0::FloatCmp            0      0.00%     45.31% # Number of instructions issued per FU type, per thread (Count)
system.cpu.statIssuedInstType_0::FloatCvt           64      0.00%     45.31% # Number of instructions issued per FU type, per thread (Count)
system.cpu.statIssuedInstType_0::FloatMult            0      0.00%     45.31% # Number of instructions issued per FU type, per thread (Count)
system.cpu.statIssuedInstType_0::FloatMultAcc            0      0.00%     45.31% # Number of instructions issued per FU type, per thread (Count)
system.cpu.statIssuedInstType_0::FloatDiv            0      0.00%     45.31% # Number of instructions issued per FU type, per thread (Count)
system.cpu.statIssuedInstType_0::FloatMisc            0      0.00%     45.31% # Number of instructions issued per FU type, per thread (Count)
system.cpu.statIssuedInstType_0::FloatSqrt            0      0.00%     45.31% # Number of instructions issued per FU type, per thread (Count)
system.cpu.statIssuedInstType_0::SimdAdd            0      0.00%     45.31% # Number of instructions issued per FU type, per thread (Count)
system.cpu.statIssuedInstType_0::SimdAddAcc            0      0.00%     45.31% # Number of instructions issued per FU type, per thread (Count)
system.cpu.statIssuedInstType_0::SimdAlu            6      0.00%     45.31% # Number of instructions issued per FU type, per thread (Count)
system.cpu.statIssuedInstType_0::SimdCmp            0      0.00%     45.31% # Number of instructions issued per FU type, per thread (Count)
system.cpu.statIssuedInstType_0::SimdCvt           44      0.00%     45.31% # Number of instructions issued per FU type, per thread (Count)
system.cpu.statIssuedInstType_0::SimdMisc           79      0.00%     45.31% # Number of instructions issued per FU type, per thread (Count)
system.cpu.statIssuedInstType_0::SimdMult            0      0.00%     45.31% # Number of instructions issued per FU type, per thread (Count)
system.cpu.statIssuedInstType_0::SimdMultAcc            0      0.00%     45.31% # Number of instructions issued per FU type, per thread (Count)
system.cpu.statIssuedInstType_0::SimdShift            0      0.00%     45.31% # Number of instructions issued per FU type, per thread (Count)
system.cpu.statIssuedInstType_0::SimdShiftAcc            0      0.00%     45.31% # Number of instructions issued per FU type, per thread (Count)
system.cpu.statIssuedInstType_0::SimdDiv            0      0.00%     45.31% # Number of instructions issued per FU type, per thread (Count)
system.cpu.statIssuedInstType_0::SimdSqrt            0      0.00%     45.31% # Number of instructions issued per FU type, per thread (Count)
system.cpu.statIssuedInstType_0::SimdFloatAdd            0      0.00%     45.31% # Number of instructions issued per FU type, per thread (Count)
system.cpu.statIssuedInstType_0::SimdFloatAlu            0      0.00%     45.31% # Number of instructions issued per FU type, per thread (Count)
system.cpu.statIssuedInstType_0::SimdFloatCmp            0      0.00%     45.31% # Number of instructions issued per FU type, per thread (Count)
system.cpu.statIssuedInstType_0::SimdFloatCvt            0      0.00%     45.31% # Number of instructions issued per FU type, per thread (Count)
system.cpu.statIssuedInstType_0::SimdFloatDiv            0      0.00%     45.31% # Number of instructions issued per FU type, per thread (Count)
system.cpu.statIssuedInstType_0::SimdFloatMisc            0      0.00%     45.31% # Number of instructions issued per FU type, per thread (Count)
system.cpu.statIssuedInstType_0::SimdFloatMult            0      0.00%     45.31% # Number of instructions issued per FU type, per thread (Count)
system.cpu.statIssuedInstType_0::SimdFloatMultAcc            0      0.00%     45.31% # Number of instructions issued per FU type, per thread (Count)
system.cpu.statIssuedInstType_0::SimdFloatSqrt            0      0.00%     45.31% # Number of instructions issued per FU type, per thread (Count)
system.cpu.statIssuedInstType_0::SimdReduceAdd            0      0.00%     45.31% # Number of instructions issued per FU type, per thread (Count)
system.cpu.statIssuedInstType_0::SimdReduceAlu            0      0.00%     45.31% # Number of instructions issued per FU type, per thread (Count)
system.cpu.statIssuedInstType_0::SimdReduceCmp            0      0.00%     45.31% # Number of instructions issued per FU type, per thread (Count)
system.cpu.statIssuedInstType_0::SimdFloatReduceAdd            0      0.00%     45.31% # Number of instructions issued per FU type, per thread (Count)
system.cpu.statIssuedInstType_0::SimdFloatReduceCmp            0      0.00%     45.31% # Number of instructions issued per FU type, per thread (Count)
system.cpu.statIssuedInstType_0::SimdAes            0      0.00%     45.31% # Number of instructions issued per FU type, per thread (Count)
system.cpu.statIssuedInstType_0::SimdAesMix            0      0.00%     45.31% # Number of instructions issued per FU type, per thread (Count)
system.cpu.statIssuedInstType_0::SimdSha1Hash            0      0.00%     45.31% # Number of instructions issued per FU type, per thread (Count)
system.cpu.statIssuedInstType_0::SimdSha1Hash2            0      0.00%     45.31% # Number of instructions issued per FU type, per thread (Count)
system.cpu.statIssuedInstType_0::SimdSha256Hash            0      0.00%     45.31% # Number of instructions issued per FU type, per thread (Count)
system.cpu.statIssuedInstType_0::SimdSha256Hash2            0      0.00%     45.31% # Number of instructions issued per FU type, per thread (Count)
system.cpu.statIssuedInstType_0::SimdShaSigma2            0      0.00%     45.31% # Number of instructions issued per FU type, per thread (Count)
system.cpu.statIssuedInstType_0::SimdShaSigma3            0      0.00%     45.31% # Number of instructions issued per FU type, per thread (Count)
system.cpu.statIssuedInstType_0::SimdPredAlu            0      0.00%     45.31% # Number of instructions issued per FU type, per thread (Count)
system.cpu.statIssuedInstType_0::MemRead       275130      1.31%     46.63% # Number of instructions issued per FU type, per thread (Count)
system.cpu.statIssuedInstType_0::MemWrite       167790      0.80%     47.43% # Number of instructions issued per FU type, per thread (Count)
system.cpu.statIssuedInstType_0::FloatMemRead          313      0.00%     47.43% # Number of instructions issued per FU type, per thread (Count)
system.cpu.statIssuedInstType_0::FloatMemWrite     11000964     52.57%    100.00% # Number of instructions issued per FU type, per thread (Count)
system.cpu.statIssuedInstType_0::IprAccess            0      0.00%    100.00% # Number of instructions issued per FU type, per thread (Count)
system.cpu.statIssuedInstType_0::InstPrefetch            0      0.00%    100.00% # Number of instructions issued per FU type, per thread (Count)
system.cpu.statIssuedInstType_0::total       20926621                       # Number of instructions issued per FU type, per thread (Count)
system.cpu.issueRate                         0.118521                       # Inst issue rate ((Count/Cycle))
system.cpu.fuBusy                               68528                       # FU busy when requested (Count)
system.cpu.fuBusyRate                        0.003275                       # FU busy rate (busy events/executed inst) ((Count/Count))
system.cpu.intInstQueueReads                196394225                       # Number of integer instruction queue reads (Count)
system.cpu.intInstQueueWrites                11594563                       # Number of integer instruction queue writes (Count)
system.cpu.intInstQueueWakeupAccesses         9872770                       # Number of integer instruction queue wakeup accesses (Count)
system.cpu.fpInstQueueReads                  22043595                       # Number of floating instruction queue reads (Count)
system.cpu.fpInstQueueWrites                 11648901                       # Number of floating instruction queue writes (Count)
system.cpu.fpInstQueueWakeupAccesses         10394818                       # Number of floating instruction queue wakeup accesses (Count)
system.cpu.vecInstQueueReads                        0                       # Number of vector instruction queue reads (Count)
system.cpu.vecInstQueueWrites                       0                       # Number of vector instruction queue writes (Count)
system.cpu.vecInstQueueWakeupAccesses               0                       # Number of vector instruction queue wakeup accesses (Count)
system.cpu.intAluAccesses                     9951482                       # Number of integer alu accesses (Count)
system.cpu.fpAluAccesses                     11042041                       # Number of floating point alu accesses (Count)
system.cpu.vecAluAccesses                           0                       # Number of vector alu accesses (Count)
system.cpu.numInsts                          20891432                       # Number of executed instructions (Count)
system.cpu.numLoadInsts                        272195                       # Number of load instructions executed (Count)
system.cpu.numSquashedInsts                     35189                       # Number of squashed instructions skipped in execute (Count)
system.cpu.numSwp                                   0                       # Number of swp insts executed (Count)
system.cpu.numNop                                   0                       # Number of nop insts executed (Count)
system.cpu.numRefs                           11424919                       # Number of memory reference insts executed (Count)
system.cpu.numBranches                        1467254                       # Number of branches executed (Count)
system.cpu.numStoreInsts                     11152724                       # Number of stores executed (Count)
system.cpu.numRate                           0.118321                       # Inst execution rate ((Count/Cycle))
system.cpu.timesIdled                             575                       # Number of times that the entire CPU went into an idle state and unscheduled itself (Count)
system.cpu.idleCycles                           50298                       # Total number of cycles that the CPU has spent unscheduled due to idling (Cycle)
system.cpu.committedInsts                    10000000                       # Number of Instructions Simulated (Count)
system.cpu.committedOps                      19429302                       # Number of Ops (including micro ops) Simulated (Count)
system.cpu.cpi                              17.656498                       # CPI: Cycles Per Instruction ((Cycle/Count))
system.cpu.totalCpi                         17.656498                       # CPI: Total CPI of All Threads ((Cycle/Count))
system.cpu.ipc                               0.056636                       # IPC: Instructions Per Cycle ((Count/Cycle))
system.cpu.totalIpc                          0.056636                       # IPC: Total IPC of All Threads ((Count/Cycle))
system.cpu.intRegfileReads                   22369316                       # Number of integer regfile reads (Count)
system.cpu.intRegfileWrites                   6981556                       # Number of integer regfile writes (Count)
system.cpu.fpRegfileReads                    11001708                       # Number of floating regfile reads (Count)
system.cpu.fpRegfileWrites                        528                       # Number of floating regfile writes (Count)
system.cpu.ccRegfileReads                     7717674                       # number of cc regfile reads (Count)
system.cpu.ccRegfileWrites                    6395189                       # number of cc regfile writes (Count)
system.cpu.miscRegfileReads                  14381304                       # number of misc regfile reads (Count)
system.cpu.miscRegfileWrites                       36                       # number of misc regfile writes (Count)
system.cpu.MemDepUnit__0.insertedLoads         341717                       # Number of loads inserted to the mem dependence unit. (Count)
system.cpu.MemDepUnit__0.insertedStores      11226274                       # Number of stores inserted to the mem dependence unit. (Count)
system.cpu.MemDepUnit__0.conflictingLoads         7176                       # Number of conflicting loads. (Count)
system.cpu.MemDepUnit__0.conflictingStores         6669                       # Number of conflicting stores. (Count)
system.cpu.MemDepUnit__1.insertedLoads              0                       # Number of loads inserted to the mem dependence unit. (Count)
system.cpu.MemDepUnit__1.insertedStores             0                       # Number of stores inserted to the mem dependence unit. (Count)
system.cpu.MemDepUnit__1.conflictingLoads            0                       # Number of conflicting loads. (Count)
system.cpu.MemDepUnit__1.conflictingStores            0                       # Number of conflicting stores. (Count)
system.cpu.MemDepUnit__2.insertedLoads              0                       # Number of loads inserted to the mem dependence unit. (Count)
system.cpu.MemDepUnit__2.insertedStores             0                       # Number of stores inserted to the mem dependence unit. (Count)
system.cpu.MemDepUnit__2.conflictingLoads            0                       # Number of conflicting loads. (Count)
system.cpu.MemDepUnit__2.conflictingStores            0                       # Number of conflicting stores. (Count)
system.cpu.MemDepUnit__3.insertedLoads              0                       # Number of loads inserted to the mem dependence unit. (Count)
system.cpu.MemDepUnit__3.insertedStores             0                       # Number of stores inserted to the mem dependence unit. (Count)
system.cpu.MemDepUnit__3.conflictingLoads            0                       # Number of conflicting loads. (Count)
system.cpu.MemDepUnit__3.conflictingStores            0                       # Number of conflicting stores. (Count)
system.cpu.branchPred.lookups                 1583796                       # Number of BP lookups (Count)
system.cpu.branchPred.condPredicted           1568977                       # Number of conditional branches predicted (Count)
system.cpu.branchPred.condIncorrect              5260                       # Number of conditional branches incorrect (Count)
system.cpu.branchPred.BTBLookups              1538494                       # Number of BTB lookups (Count)
system.cpu.branchPred.BTBHits                 1536292                       # Number of BTB hits (Count)
system.cpu.branchPred.BTBHitRatio            0.998569                       # BTB Hit Ratio (Ratio)
system.cpu.branchPred.RASUsed                    4309                       # Number of times the RAS was used to get a target. (Count)
system.cpu.branchPred.RASIncorrect                  0                       # Number of incorrect RAS predictions. (Count)
system.cpu.branchPred.indirectLookups             920                       # Number of indirect predictor lookups. (Count)
system.cpu.branchPred.indirectHits                187                       # Number of indirect target hits. (Count)
system.cpu.branchPred.indirectMisses              733                       # Number of indirect misses. (Count)
system.cpu.branchPred.indirectMispredicted          142                       # Number of mispredicted indirect branches. (Count)
system.cpu.commit.commitSquashedInsts         1763275                       # The number of squashed insts skipped by commit (Count)
system.cpu.commit.commitNonSpecStalls              36                       # The number of times commit has been forced to stall to communicate backwards (Count)
system.cpu.commit.branchMispredicts             18199                       # The number of times a branch was mispredicted (Count)
system.cpu.commit.numCommittedDist::samples    176257803                       # Number of insts commited each cycle (Count)
system.cpu.commit.numCommittedDist::mean     0.110232                       # Number of insts commited each cycle (Count)
system.cpu.commit.numCommittedDist::stdev     0.453242                       # Number of insts commited each cycle (Count)
system.cpu.commit.numCommittedDist::underflows            0      0.00%      0.00% # Number of insts commited each cycle (Count)
system.cpu.commit.numCommittedDist::0       161900382     91.85%     91.85% # Number of insts commited each cycle (Count)
system.cpu.commit.numCommittedDist::1        11681392      6.63%     98.48% # Number of insts commited each cycle (Count)
system.cpu.commit.numCommittedDist::2         1088489      0.62%     99.10% # Number of insts commited each cycle (Count)
system.cpu.commit.numCommittedDist::3         1334250      0.76%     99.86% # Number of insts commited each cycle (Count)
system.cpu.commit.numCommittedDist::4           30981      0.02%     99.87% # Number of insts commited each cycle (Count)
system.cpu.commit.numCommittedDist::5           87839      0.05%     99.92% # Number of insts commited each cycle (Count)
system.cpu.commit.numCommittedDist::6           34556      0.02%     99.94% # Number of insts commited each cycle (Count)
system.cpu.commit.numCommittedDist::7            1585      0.00%     99.94% # Number of insts commited each cycle (Count)
system.cpu.commit.numCommittedDist::8           98329      0.06%    100.00% # Number of insts commited each cycle (Count)
system.cpu.commit.numCommittedDist::overflows            0      0.00%    100.00% # Number of insts commited each cycle (Count)
system.cpu.commit.numCommittedDist::min_value            0                       # Number of insts commited each cycle (Count)
system.cpu.commit.numCommittedDist::max_value            8                       # Number of insts commited each cycle (Count)
system.cpu.commit.numCommittedDist::total    176257803                       # Number of insts commited each cycle (Count)
system.cpu.commit.instsCommitted             10000000                       # Number of instructions committed (Count)
system.cpu.commit.opsCommitted               19429302                       # Number of ops (including micro ops) committed (Count)
system.cpu.commit.memRefs                    10691311                       # Number of memory references committed (Count)
system.cpu.commit.loads                        200672                       # Number of loads committed (Count)
system.cpu.commit.amos                              0                       # Number of atomic instructions committed (Count)
system.cpu.commit.membars                           0                       # Number of memory barriers committed (Count)
system.cpu.commit.branches                    1364327                       # Number of branches committed (Count)
system.cpu.commit.vectorInstructions                0                       # Number of committed Vector instructions. (Count)
system.cpu.commit.floating                   10354251                       # Number of committed floating point instructions. (Count)
system.cpu.commit.integer                    19425549                       # Number of committed integer instructions. (Count)
system.cpu.commit.functionCalls                  2774                       # Number of function calls committed. (Count)
system.cpu.commit.committedInstType_0::No_OpClass          579      0.00%      0.00% # Class of committed instruction (Count)
system.cpu.commit.committedInstType_0::IntAlu      8735175     44.96%     44.96% # Class of committed instruction (Count)
system.cpu.commit.committedInstType_0::IntMult          643      0.00%     44.97% # Class of committed instruction (Count)
system.cpu.commit.committedInstType_0::IntDiv         1388      0.01%     44.97% # Class of committed instruction (Count)
system.cpu.commit.committedInstType_0::FloatAdd           37      0.00%     44.97% # Class of committed instruction (Count)
system.cpu.commit.committedInstType_0::FloatCmp            0      0.00%     44.97% # Class of committed instruction (Count)
system.cpu.commit.committedInstType_0::FloatCvt           64      0.00%     44.97% # Class of committed instruction (Count)
system.cpu.commit.committedInstType_0::FloatMult            0      0.00%     44.97% # Class of committed instruction (Count)
system.cpu.commit.committedInstType_0::FloatMultAcc            0      0.00%     44.97% # Class of committed instruction (Count)
system.cpu.commit.committedInstType_0::FloatDiv            0      0.00%     44.97% # Class of committed instruction (Count)
system.cpu.commit.committedInstType_0::FloatMisc            0      0.00%     44.97% # Class of committed instruction (Count)
system.cpu.commit.committedInstType_0::FloatSqrt            0      0.00%     44.97% # Class of committed instruction (Count)
system.cpu.commit.committedInstType_0::SimdAdd            0      0.00%     44.97% # Class of committed instruction (Count)
system.cpu.commit.committedInstType_0::SimdAddAcc            0      0.00%     44.97% # Class of committed instruction (Count)
system.cpu.commit.committedInstType_0::SimdAlu            6      0.00%     44.97% # Class of committed instruction (Count)
system.cpu.commit.committedInstType_0::SimdCmp            0      0.00%     44.97% # Class of committed instruction (Count)
system.cpu.commit.committedInstType_0::SimdCvt           32      0.00%     44.97% # Class of committed instruction (Count)
system.cpu.commit.committedInstType_0::SimdMisc           67      0.00%     44.97% # Class of committed instruction (Count)
system.cpu.commit.committedInstType_0::SimdMult            0      0.00%     44.97% # Class of committed instruction (Count)
system.cpu.commit.committedInstType_0::SimdMultAcc            0      0.00%     44.97% # Class of committed instruction (Count)
system.cpu.commit.committedInstType_0::SimdShift            0      0.00%     44.97% # Class of committed instruction (Count)
system.cpu.commit.committedInstType_0::SimdShiftAcc            0      0.00%     44.97% # Class of committed instruction (Count)
system.cpu.commit.committedInstType_0::SimdDiv            0      0.00%     44.97% # Class of committed instruction (Count)
system.cpu.commit.committedInstType_0::SimdSqrt            0      0.00%     44.97% # Class of committed instruction (Count)
system.cpu.commit.committedInstType_0::SimdFloatAdd            0      0.00%     44.97% # Class of committed instruction (Count)
system.cpu.commit.committedInstType_0::SimdFloatAlu            0      0.00%     44.97% # Class of committed instruction (Count)
system.cpu.commit.committedInstType_0::SimdFloatCmp            0      0.00%     44.97% # Class of committed instruction (Count)
system.cpu.commit.committedInstType_0::SimdFloatCvt            0      0.00%     44.97% # Class of committed instruction (Count)
system.cpu.commit.committedInstType_0::SimdFloatDiv            0      0.00%     44.97% # Class of committed instruction (Count)
system.cpu.commit.committedInstType_0::SimdFloatMisc            0      0.00%     44.97% # Class of committed instruction (Count)
system.cpu.commit.committedInstType_0::SimdFloatMult            0      0.00%     44.97% # Class of committed instruction (Count)
system.cpu.commit.committedInstType_0::SimdFloatMultAcc            0      0.00%     44.97% # Class of committed instruction (Count)
system.cpu.commit.committedInstType_0::SimdFloatSqrt            0      0.00%     44.97% # Class of committed instruction (Count)
system.cpu.commit.committedInstType_0::SimdReduceAdd            0      0.00%     44.97% # Class of committed instruction (Count)
system.cpu.commit.committedInstType_0::SimdReduceAlu            0      0.00%     44.97% # Class of committed instruction (Count)
system.cpu.commit.committedInstType_0::SimdReduceCmp            0      0.00%     44.97% # Class of committed instruction (Count)
system.cpu.commit.committedInstType_0::SimdFloatReduceAdd            0      0.00%     44.97% # Class of committed instruction (Count)
system.cpu.commit.committedInstType_0::SimdFloatReduceCmp            0      0.00%     44.97% # Class of committed instruction (Count)
system.cpu.commit.committedInstType_0::SimdAes            0      0.00%     44.97% # Class of committed instruction (Count)
system.cpu.commit.committedInstType_0::SimdAesMix            0      0.00%     44.97% # Class of committed instruction (Count)
system.cpu.commit.committedInstType_0::SimdSha1Hash            0      0.00%     44.97% # Class of committed instruction (Count)
system.cpu.commit.committedInstType_0::SimdSha1Hash2            0      0.00%     44.97% # Class of committed instruction (Count)
system.cpu.commit.committedInstType_0::SimdSha256Hash            0      0.00%     44.97% # Class of committed instruction (Count)
system.cpu.commit.committedInstType_0::SimdSha256Hash2            0      0.00%     44.97% # Class of committed instruction (Count)
system.cpu.commit.committedInstType_0::SimdShaSigma2            0      0.00%     44.97% # Class of committed instruction (Count)
system.cpu.commit.committedInstType_0::SimdShaSigma3            0      0.00%     44.97% # Class of committed instruction (Count)
system.cpu.commit.committedInstType_0::SimdPredAlu            0      0.00%     44.97% # Class of committed instruction (Count)
system.cpu.commit.committedInstType_0::MemRead       200528      1.03%     46.01% # Class of committed instruction (Count)
system.cpu.commit.committedInstType_0::MemWrite       136759      0.70%     46.71% # Class of committed instruction (Count)
system.cpu.commit.committedInstType_0::FloatMemRead          144      0.00%     46.71% # Class of committed instruction (Count)
system.cpu.commit.committedInstType_0::FloatMemWrite     10353880     53.29%    100.00% # Class of committed instruction (Count)
system.cpu.commit.committedInstType_0::IprAccess            0      0.00%    100.00% # Class of committed instruction (Count)
system.cpu.commit.committedInstType_0::InstPrefetch            0      0.00%    100.00% # Class of committed instruction (Count)
system.cpu.commit.committedInstType_0::total     19429302                       # Class of committed instruction (Count)
system.cpu.commit.commitEligibleSamples         98329                       # number cycles where commit BW limit reached (Cycle)
system.cpu.dcache.demandHits::cpu.data        9443057                       # number of demand (read+write) hits (Count)
system.cpu.dcache.demandHits::total           9443057                       # number of demand (read+write) hits (Count)
system.cpu.dcache.overallHits::cpu.data       9443057                       # number of overall hits (Count)
system.cpu.dcache.overallHits::total          9443057                       # number of overall hits (Count)
system.cpu.dcache.demandMisses::cpu.data      1308956                       # number of demand (read+write) misses (Count)
system.cpu.dcache.demandMisses::total         1308956                       # number of demand (read+write) misses (Count)
system.cpu.dcache.overallMisses::cpu.data      1308956                       # number of overall misses (Count)
system.cpu.dcache.overallMisses::total        1308956                       # number of overall misses (Count)
system.cpu.dcache.demandMissLatency::cpu.data  79131694989                       # number of demand (read+write) miss ticks (Tick)
system.cpu.dcache.demandMissLatency::total  79131694989                       # number of demand (read+write) miss ticks (Tick)
system.cpu.dcache.overallMissLatency::cpu.data  79131694989                       # number of overall miss ticks (Tick)
system.cpu.dcache.overallMissLatency::total  79131694989                       # number of overall miss ticks (Tick)
system.cpu.dcache.demandAccesses::cpu.data     10752013                       # number of demand (read+write) accesses (Count)
system.cpu.dcache.demandAccesses::total      10752013                       # number of demand (read+write) accesses (Count)
system.cpu.dcache.overallAccesses::cpu.data     10752013                       # number of overall (read+write) accesses (Count)
system.cpu.dcache.overallAccesses::total     10752013                       # number of overall (read+write) accesses (Count)
system.cpu.dcache.demandMissRate::cpu.data     0.121741                       # miss rate for demand accesses (Ratio)
system.cpu.dcache.demandMissRate::total      0.121741                       # miss rate for demand accesses (Ratio)
system.cpu.dcache.overallMissRate::cpu.data     0.121741                       # miss rate for overall accesses (Ratio)
system.cpu.dcache.overallMissRate::total     0.121741                       # miss rate for overall accesses (Ratio)
system.cpu.dcache.demandAvgMissLatency::cpu.data 60454.052687                       # average overall miss latency in ticks ((Tick/Count))
system.cpu.dcache.demandAvgMissLatency::total 60454.052687                       # average overall miss latency in ticks ((Tick/Count))
system.cpu.dcache.overallAvgMissLatency::cpu.data 60454.052687                       # average overall miss latency ((Tick/Count))
system.cpu.dcache.overallAvgMissLatency::total 60454.052687                       # average overall miss latency ((Tick/Count))
system.cpu.dcache.blockedCycles::no_mshrs        14943                       # number of cycles access was blocked (Cycle)
system.cpu.dcache.blockedCycles::no_targets          174                       # number of cycles access was blocked (Cycle)
system.cpu.dcache.blockedCauses::no_mshrs          333                       # number of times access was blocked (Count)
system.cpu.dcache.blockedCauses::no_targets            2                       # number of times access was blocked (Count)
system.cpu.dcache.avgBlocked::no_mshrs      44.873874                       # average number of cycles each access was blocked ((Cycle/Count))
system.cpu.dcache.avgBlocked::no_targets           87                       # average number of cycles each access was blocked ((Cycle/Count))
system.cpu.dcache.writebacks::writebacks      1296503                       # number of writebacks (Count)
system.cpu.dcache.writebacks::total           1296503                       # number of writebacks (Count)
system.cpu.dcache.demandMshrHits::cpu.data         9121                       # number of demand (read+write) MSHR hits (Count)
system.cpu.dcache.demandMshrHits::total          9121                       # number of demand (read+write) MSHR hits (Count)
system.cpu.dcache.overallMshrHits::cpu.data         9121                       # number of overall MSHR hits (Count)
system.cpu.dcache.overallMshrHits::total         9121                       # number of overall MSHR hits (Count)
system.cpu.dcache.demandMshrMisses::cpu.data      1299835                       # number of demand (read+write) MSHR misses (Count)
system.cpu.dcache.demandMshrMisses::total      1299835                       # number of demand (read+write) MSHR misses (Count)
system.cpu.dcache.overallMshrMisses::cpu.data      1299835                       # number of overall MSHR misses (Count)
system.cpu.dcache.overallMshrMisses::total      1299835                       # number of overall MSHR misses (Count)
system.cpu.dcache.demandMshrMissLatency::cpu.data  77377300989                       # number of demand (read+write) MSHR miss ticks (Tick)
system.cpu.dcache.demandMshrMissLatency::total  77377300989                       # number of demand (read+write) MSHR miss ticks (Tick)
system.cpu.dcache.overallMshrMissLatency::cpu.data  77377300989                       # number of overall MSHR miss ticks (Tick)
system.cpu.dcache.overallMshrMissLatency::total  77377300989                       # number of overall MSHR miss ticks (Tick)
system.cpu.dcache.demandMshrMissRate::cpu.data     0.120892                       # mshr miss ratio for demand accesses (Ratio)
system.cpu.dcache.demandMshrMissRate::total     0.120892                       # mshr miss ratio for demand accesses (Ratio)
system.cpu.dcache.overallMshrMissRate::cpu.data     0.120892                       # mshr miss ratio for overall accesses (Ratio)
system.cpu.dcache.overallMshrMissRate::total     0.120892                       # mshr miss ratio for overall accesses (Ratio)
system.cpu.dcache.demandAvgMshrMissLatency::cpu.data 59528.556308                       # average overall mshr miss latency ((Tick/Count))
system.cpu.dcache.demandAvgMshrMissLatency::total 59528.556308                       # average overall mshr miss latency ((Tick/Count))
system.cpu.dcache.overallAvgMshrMissLatency::cpu.data 59528.556308                       # average overall mshr miss latency ((Tick/Count))
system.cpu.dcache.overallAvgMshrMissLatency::total 59528.556308                       # average overall mshr miss latency ((Tick/Count))
system.cpu.dcache.replacements                1298810                       # number of replacements (Count)
system.cpu.dcache.ReadReq.hits::cpu.data       249890                       # number of ReadReq hits (Count)
system.cpu.dcache.ReadReq.hits::total          249890                       # number of ReadReq hits (Count)
system.cpu.dcache.ReadReq.misses::cpu.data        11514                       # number of ReadReq misses (Count)
system.cpu.dcache.ReadReq.misses::total         11514                       # number of ReadReq misses (Count)
system.cpu.dcache.ReadReq.missLatency::cpu.data    607800000                       # number of ReadReq miss ticks (Tick)
system.cpu.dcache.ReadReq.missLatency::total    607800000                       # number of ReadReq miss ticks (Tick)
system.cpu.dcache.ReadReq.accesses::cpu.data       261404                       # number of ReadReq accesses(hits+misses) (Count)
system.cpu.dcache.ReadReq.accesses::total       261404                       # number of ReadReq accesses(hits+misses) (Count)
system.cpu.dcache.ReadReq.missRate::cpu.data     0.044047                       # miss rate for ReadReq accesses (Ratio)
system.cpu.dcache.ReadReq.missRate::total     0.044047                       # miss rate for ReadReq accesses (Ratio)
system.cpu.dcache.ReadReq.avgMissLatency::cpu.data 52787.910370                       # average ReadReq miss latency ((Tick/Count))
system.cpu.dcache.ReadReq.avgMissLatency::total 52787.910370                       # average ReadReq miss latency ((Tick/Count))
system.cpu.dcache.ReadReq.mshrHits::cpu.data         9115                       # number of ReadReq MSHR hits (Count)
system.cpu.dcache.ReadReq.mshrHits::total         9115                       # number of ReadReq MSHR hits (Count)
system.cpu.dcache.ReadReq.mshrMisses::cpu.data         2399                       # number of ReadReq MSHR misses (Count)
system.cpu.dcache.ReadReq.mshrMisses::total         2399                       # number of ReadReq MSHR misses (Count)
system.cpu.dcache.ReadReq.mshrMissLatency::cpu.data    151015500                       # number of ReadReq MSHR miss ticks (Tick)
system.cpu.dcache.ReadReq.mshrMissLatency::total    151015500                       # number of ReadReq MSHR miss ticks (Tick)
system.cpu.dcache.ReadReq.mshrMissRate::cpu.data     0.009177                       # mshr miss rate for ReadReq accesses (Ratio)
system.cpu.dcache.ReadReq.mshrMissRate::total     0.009177                       # mshr miss rate for ReadReq accesses (Ratio)
system.cpu.dcache.ReadReq.avgMshrMissLatency::cpu.data 62949.353897                       # average ReadReq mshr miss latency ((Tick/Count))
system.cpu.dcache.ReadReq.avgMshrMissLatency::total 62949.353897                       # average ReadReq mshr miss latency ((Tick/Count))
system.cpu.dcache.WriteReq.hits::cpu.data      9193167                       # number of WriteReq hits (Count)
system.cpu.dcache.WriteReq.hits::total        9193167                       # number of WriteReq hits (Count)
system.cpu.dcache.WriteReq.misses::cpu.data      1297442                       # number of WriteReq misses (Count)
system.cpu.dcache.WriteReq.misses::total      1297442                       # number of WriteReq misses (Count)
system.cpu.dcache.WriteReq.missLatency::cpu.data  78523894989                       # number of WriteReq miss ticks (Tick)
system.cpu.dcache.WriteReq.missLatency::total  78523894989                       # number of WriteReq miss ticks (Tick)
system.cpu.dcache.WriteReq.accesses::cpu.data     10490609                       # number of WriteReq accesses(hits+misses) (Count)
system.cpu.dcache.WriteReq.accesses::total     10490609                       # number of WriteReq accesses(hits+misses) (Count)
system.cpu.dcache.WriteReq.missRate::cpu.data     0.123677                       # miss rate for WriteReq accesses (Ratio)
system.cpu.dcache.WriteReq.missRate::total     0.123677                       # miss rate for WriteReq accesses (Ratio)
system.cpu.dcache.WriteReq.avgMissLatency::cpu.data 60522.084986                       # average WriteReq miss latency ((Tick/Count))
system.cpu.dcache.WriteReq.avgMissLatency::total 60522.084986                       # average WriteReq miss latency ((Tick/Count))
system.cpu.dcache.WriteReq.mshrHits::cpu.data            6                       # number of WriteReq MSHR hits (Count)
system.cpu.dcache.WriteReq.mshrHits::total            6                       # number of WriteReq MSHR hits (Count)
system.cpu.dcache.WriteReq.mshrMisses::cpu.data      1297436                       # number of WriteReq MSHR misses (Count)
system.cpu.dcache.WriteReq.mshrMisses::total      1297436                       # number of WriteReq MSHR misses (Count)
system.cpu.dcache.WriteReq.mshrMissLatency::cpu.data  77226285489                       # number of WriteReq MSHR miss ticks (Tick)
system.cpu.dcache.WriteReq.mshrMissLatency::total  77226285489                       # number of WriteReq MSHR miss ticks (Tick)
system.cpu.dcache.WriteReq.mshrMissRate::cpu.data     0.123676                       # mshr miss rate for WriteReq accesses (Ratio)
system.cpu.dcache.WriteReq.mshrMissRate::total     0.123676                       # mshr miss rate for WriteReq accesses (Ratio)
system.cpu.dcache.WriteReq.avgMshrMissLatency::cpu.data 59522.231146                       # average WriteReq mshr miss latency ((Tick/Count))
system.cpu.dcache.WriteReq.avgMshrMissLatency::total 59522.231146                       # average WriteReq mshr miss latency ((Tick/Count))
system.cpu.dcache.power_state.pwrStateResidencyTicks::UNDEFINED  88282490500                       # Cumulative time (in ticks) in various power states (Tick)
system.cpu.dcache.tags.tagsInUse          1023.468228                       # Average ticks per tags in use ((Tick/Count))
system.cpu.dcache.tags.totalRefs             10742891                       # Total number of references to valid blocks. (Count)
system.cpu.dcache.tags.sampledRefs            1299834                       # Sample count of references to valid blocks. (Count)
system.cpu.dcache.tags.avgRefs               8.264818                       # Average number of references to valid blocks. ((Count/Count))
system.cpu.dcache.tags.warmupTick              148000                       # The tick when the warmup percentage was hit. (Tick)
system.cpu.dcache.tags.occupancies::cpu.data  1023.468228                       # Average occupied blocks per tick, per requestor ((Count/Tick))
system.cpu.dcache.tags.avgOccs::cpu.data     0.999481                       # Average percentage of cache occupancy ((Ratio/Tick))
system.cpu.dcache.tags.avgOccs::total        0.999481                       # Average percentage of cache occupancy ((Ratio/Tick))
system.cpu.dcache.tags.occupanciesTaskId::1024         1024                       # Occupied blocks per task id (Count)
system.cpu.dcache.tags.ageTaskId_1024::0          146                       # Occupied blocks per task id, per block age (Count)
system.cpu.dcache.tags.ageTaskId_1024::1          878                       # Occupied blocks per task id, per block age (Count)
system.cpu.dcache.tags.ratioOccsTaskId::1024            1                       # Ratio of occupied blocks and all blocks, per task id (Ratio)
system.cpu.dcache.tags.tagAccesses           22803860                       # Number of tag accesses (Count)
system.cpu.dcache.tags.dataAccesses          22803860                       # Number of data accesses (Count)
system.cpu.dcache.tags.power_state.pwrStateResidencyTicks::UNDEFINED  88282490500                       # Cumulative time (in ticks) in various power states (Tick)
system.cpu.decode.idleCycles                  1019151                       # Number of cycles decode is idle (Cycle)
system.cpu.decode.blockedCycles             172611592                       # Number of cycles decode is blocked (Cycle)
system.cpu.decode.runCycles                    477512                       # Number of cycles decode is running (Cycle)
system.cpu.decode.unblockCycles               2367831                       # Number of cycles decode is unblocking (Cycle)
system.cpu.decode.squashCycles                  38598                       # Number of cycles decode is squashing (Cycle)
system.cpu.decode.branchResolved              1468215                       # Number of times decode resolved a branch (Count)
system.cpu.decode.branchMispred                   496                       # Number of times decode detected a branch misprediction (Count)
system.cpu.decode.decodedInsts               21638344                       # Number of instructions handled by decode (Count)
system.cpu.decode.squashedInsts                  2362                       # Number of squashed instructions handled by decode (Count)
system.cpu.dtb_walker_cache.blockedCycles::no_mshrs            0                       # number of cycles access was blocked (Cycle)
system.cpu.dtb_walker_cache.blockedCycles::no_targets            0                       # number of cycles access was blocked (Cycle)
system.cpu.dtb_walker_cache.blockedCauses::no_mshrs            0                       # number of times access was blocked (Count)
system.cpu.dtb_walker_cache.blockedCauses::no_targets            0                       # number of times access was blocked (Count)
system.cpu.dtb_walker_cache.avgBlocked::no_mshrs          nan                       # average number of cycles each access was blocked ((Cycle/Count))
system.cpu.dtb_walker_cache.avgBlocked::no_targets          nan                       # average number of cycles each access was blocked ((Cycle/Count))
system.cpu.dtb_walker_cache.replacements            0                       # number of replacements (Count)
system.cpu.dtb_walker_cache.power_state.pwrStateResidencyTicks::UNDEFINED  88282490500                       # Cumulative time (in ticks) in various power states (Tick)
system.cpu.dtb_walker_cache.tags.tagsInUse            0                       # Average ticks per tags in use ((Tick/Count))
system.cpu.dtb_walker_cache.tags.totalRefs            0                       # Total number of references to valid blocks. (Count)
system.cpu.dtb_walker_cache.tags.sampledRefs            0                       # Sample count of references to valid blocks. (Count)
system.cpu.dtb_walker_cache.tags.avgRefs          nan                       # Average number of references to valid blocks. ((Count/Count))
system.cpu.dtb_walker_cache.tags.warmupTick            0                       # The tick when the warmup percentage was hit. (Tick)
system.cpu.dtb_walker_cache.tags.tagAccesses            0                       # Number of tag accesses (Count)
system.cpu.dtb_walker_cache.tags.dataAccesses            0                       # Number of data accesses (Count)
system.cpu.dtb_walker_cache.tags.power_state.pwrStateResidencyTicks::UNDEFINED  88282490500                       # Cumulative time (in ticks) in various power states (Tick)
system.cpu.fetch.icacheStallCycles            3110379                       # Number of cycles fetch is stalled on an Icache miss (Cycle)
system.cpu.fetch.insts                       11847731                       # Number of instructions fetch has processed (Count)
system.cpu.fetch.branches                     1583796                       # Number of branches that fetch encountered (Count)
system.cpu.fetch.predictedBranches            1540788                       # Number of branches that fetch has predicted taken (Count)
system.cpu.fetch.cycles                     173363116                       # Number of cycles fetch has run and was not squashing or blocked (Cycle)
system.cpu.fetch.squashCycles                   78156                       # Number of cycles fetch has spent squashing (Cycle)
system.cpu.fetch.miscStallCycles                  259                       # Number of cycles fetch has spent waiting on interrupts, or bad addresses, or out of MSHRs (Cycle)
system.cpu.fetch.pendingTrapStallCycles          1839                       # Number of stall cycles due to pending traps (Cycle)
system.cpu.fetch.icacheWaitRetryStallCycles           13                       # Number of stall cycles due to full MSHR (Cycle)
system.cpu.fetch.cacheLines                   3076419                       # Number of cache lines fetched (Count)
system.cpu.fetch.icacheSquashes                  3798                       # Number of outstanding Icache misses that were squashed (Count)
system.cpu.fetch.nisnDist::samples          176514684                       # Number of instructions fetched each cycle (Total) (Count)
system.cpu.fetch.nisnDist::mean              0.128396                       # Number of instructions fetched each cycle (Total) (Count)
system.cpu.fetch.nisnDist::stdev             0.845403                       # Number of instructions fetched each cycle (Total) (Count)
system.cpu.fetch.nisnDist::underflows               0      0.00%      0.00% # Number of instructions fetched each cycle (Total) (Count)
system.cpu.fetch.nisnDist::0                171549858     97.19%     97.19% # Number of instructions fetched each cycle (Total) (Count)
system.cpu.fetch.nisnDist::1                    28712      0.02%     97.20% # Number of instructions fetched each cycle (Total) (Count)
system.cpu.fetch.nisnDist::2                  1440930      0.82%     98.02% # Number of instructions fetched each cycle (Total) (Count)
system.cpu.fetch.nisnDist::3                    22241      0.01%     98.03% # Number of instructions fetched each cycle (Total) (Count)
system.cpu.fetch.nisnDist::4                  1752493      0.99%     99.03% # Number of instructions fetched each cycle (Total) (Count)
system.cpu.fetch.nisnDist::5                    51684      0.03%     99.05% # Number of instructions fetched each cycle (Total) (Count)
system.cpu.fetch.nisnDist::6                   460465      0.26%     99.32% # Number of instructions fetched each cycle (Total) (Count)
system.cpu.fetch.nisnDist::7                    11092      0.01%     99.32% # Number of instructions fetched each cycle (Total) (Count)
system.cpu.fetch.nisnDist::8                  1197209      0.68%    100.00% # Number of instructions fetched each cycle (Total) (Count)
system.cpu.fetch.nisnDist::overflows                0      0.00%    100.00% # Number of instructions fetched each cycle (Total) (Count)
system.cpu.fetch.nisnDist::min_value                0                       # Number of instructions fetched each cycle (Total) (Count)
system.cpu.fetch.nisnDist::max_value                8                       # Number of instructions fetched each cycle (Total) (Count)
system.cpu.fetch.nisnDist::total            176514684                       # Number of instructions fetched each cycle (Total) (Count)
system.cpu.fetch.branchRate                  0.008970                       # Number of branch fetches per cycle (Ratio)
system.cpu.fetch.rate                        0.067101                       # Number of inst fetches per cycle ((Count/Cycle))
system.cpu.icache.demandHits::cpu.inst        3075017                       # number of demand (read+write) hits (Count)
system.cpu.icache.demandHits::total           3075017                       # number of demand (read+write) hits (Count)
system.cpu.icache.overallHits::cpu.inst       3075017                       # number of overall hits (Count)
system.cpu.icache.overallHits::total          3075017                       # number of overall hits (Count)
system.cpu.icache.demandMisses::cpu.inst         1402                       # number of demand (read+write) misses (Count)
system.cpu.icache.demandMisses::total            1402                       # number of demand (read+write) misses (Count)
system.cpu.icache.overallMisses::cpu.inst         1402                       # number of overall misses (Count)
system.cpu.icache.overallMisses::total           1402                       # number of overall misses (Count)
system.cpu.icache.demandMissLatency::cpu.inst     81632000                       # number of demand (read+write) miss ticks (Tick)
system.cpu.icache.demandMissLatency::total     81632000                       # number of demand (read+write) miss ticks (Tick)
system.cpu.icache.overallMissLatency::cpu.inst     81632000                       # number of overall miss ticks (Tick)
system.cpu.icache.overallMissLatency::total     81632000                       # number of overall miss ticks (Tick)
system.cpu.icache.demandAccesses::cpu.inst      3076419                       # number of demand (read+write) accesses (Count)
system.cpu.icache.demandAccesses::total       3076419                       # number of demand (read+write) accesses (Count)
system.cpu.icache.overallAccesses::cpu.inst      3076419                       # number of overall (read+write) accesses (Count)
system.cpu.icache.overallAccesses::total      3076419                       # number of overall (read+write) accesses (Count)
system.cpu.icache.demandMissRate::cpu.inst     0.000456                       # miss rate for demand accesses (Ratio)
system.cpu.icache.demandMissRate::total      0.000456                       # miss rate for demand accesses (Ratio)
system.cpu.icache.overallMissRate::cpu.inst     0.000456                       # miss rate for overall accesses (Ratio)
system.cpu.icache.overallMissRate::total     0.000456                       # miss rate for overall accesses (Ratio)
system.cpu.icache.demandAvgMissLatency::cpu.inst 58225.392297                       # average overall miss latency in ticks ((Tick/Count))
system.cpu.icache.demandAvgMissLatency::total 58225.392297                       # average overall miss latency in ticks ((Tick/Count))
system.cpu.icache.overallAvgMissLatency::cpu.inst 58225.392297                       # average overall miss latency ((Tick/Count))
system.cpu.icache.overallAvgMissLatency::total 58225.392297                       # average overall miss latency ((Tick/Count))
system.cpu.icache.blockedCycles::no_mshrs          182                       # number of cycles access was blocked (Cycle)
system.cpu.icache.blockedCycles::no_targets            0                       # number of cycles access was blocked (Cycle)
system.cpu.icache.blockedCauses::no_mshrs            4                       # number of times access was blocked (Count)
system.cpu.icache.blockedCauses::no_targets            0                       # number of times access was blocked (Count)
system.cpu.icache.avgBlocked::no_mshrs      45.500000                       # average number of cycles each access was blocked ((Cycle/Count))
system.cpu.icache.avgBlocked::no_targets          nan                       # average number of cycles each access was blocked ((Cycle/Count))
system.cpu.icache.writebacks::writebacks          445                       # number of writebacks (Count)
system.cpu.icache.writebacks::total               445                       # number of writebacks (Count)
system.cpu.icache.demandMshrHits::cpu.inst          461                       # number of demand (read+write) MSHR hits (Count)
system.cpu.icache.demandMshrHits::total           461                       # number of demand (read+write) MSHR hits (Count)
system.cpu.icache.overallMshrHits::cpu.inst          461                       # number of overall MSHR hits (Count)
system.cpu.icache.overallMshrHits::total          461                       # number of overall MSHR hits (Count)
system.cpu.icache.demandMshrMisses::cpu.inst          941                       # number of demand (read+write) MSHR misses (Count)
system.cpu.icache.demandMshrMisses::total          941                       # number of demand (read+write) MSHR misses (Count)
system.cpu.icache.overallMshrMisses::cpu.inst          941                       # number of overall MSHR misses (Count)
system.cpu.icache.overallMshrMisses::total          941                       # number of overall MSHR misses (Count)
system.cpu.icache.demandMshrMissLatency::cpu.inst     57823000                       # number of demand (read+write) MSHR miss ticks (Tick)
system.cpu.icache.demandMshrMissLatency::total     57823000                       # number of demand (read+write) MSHR miss ticks (Tick)
system.cpu.icache.overallMshrMissLatency::cpu.inst     57823000                       # number of overall MSHR miss ticks (Tick)
system.cpu.icache.overallMshrMissLatency::total     57823000                       # number of overall MSHR miss ticks (Tick)
system.cpu.icache.demandMshrMissRate::cpu.inst     0.000306                       # mshr miss ratio for demand accesses (Ratio)
system.cpu.icache.demandMshrMissRate::total     0.000306                       # mshr miss ratio for demand accesses (Ratio)
system.cpu.icache.overallMshrMissRate::cpu.inst     0.000306                       # mshr miss ratio for overall accesses (Ratio)
system.cpu.icache.overallMshrMissRate::total     0.000306                       # mshr miss ratio for overall accesses (Ratio)
system.cpu.icache.demandAvgMshrMissLatency::cpu.inst 61448.459086                       # average overall mshr miss latency ((Tick/Count))
system.cpu.icache.demandAvgMshrMissLatency::total 61448.459086                       # average overall mshr miss latency ((Tick/Count))
system.cpu.icache.overallAvgMshrMissLatency::cpu.inst 61448.459086                       # average overall mshr miss latency ((Tick/Count))
system.cpu.icache.overallAvgMshrMissLatency::total 61448.459086                       # average overall mshr miss latency ((Tick/Count))
system.cpu.icache.replacements                    445                       # number of replacements (Count)
system.cpu.icache.ReadReq.hits::cpu.inst      3075017                       # number of ReadReq hits (Count)
system.cpu.icache.ReadReq.hits::total         3075017                       # number of ReadReq hits (Count)
system.cpu.icache.ReadReq.misses::cpu.inst         1402                       # number of ReadReq misses (Count)
system.cpu.icache.ReadReq.misses::total          1402                       # number of ReadReq misses (Count)
system.cpu.icache.ReadReq.missLatency::cpu.inst     81632000                       # number of ReadReq miss ticks (Tick)
system.cpu.icache.ReadReq.missLatency::total     81632000                       # number of ReadReq miss ticks (Tick)
system.cpu.icache.ReadReq.accesses::cpu.inst      3076419                       # number of ReadReq accesses(hits+misses) (Count)
system.cpu.icache.ReadReq.accesses::total      3076419                       # number of ReadReq accesses(hits+misses) (Count)
system.cpu.icache.ReadReq.missRate::cpu.inst     0.000456                       # miss rate for ReadReq accesses (Ratio)
system.cpu.icache.ReadReq.missRate::total     0.000456                       # miss rate for ReadReq accesses (Ratio)
system.cpu.icache.ReadReq.avgMissLatency::cpu.inst 58225.392297                       # average ReadReq miss latency ((Tick/Count))
system.cpu.icache.ReadReq.avgMissLatency::total 58225.392297                       # average ReadReq miss latency ((Tick/Count))
system.cpu.icache.ReadReq.mshrHits::cpu.inst          461                       # number of ReadReq MSHR hits (Count)
system.cpu.icache.ReadReq.mshrHits::total          461                       # number of ReadReq MSHR hits (Count)
system.cpu.icache.ReadReq.mshrMisses::cpu.inst          941                       # number of ReadReq MSHR misses (Count)
system.cpu.icache.ReadReq.mshrMisses::total          941                       # number of ReadReq MSHR misses (Count)
system.cpu.icache.ReadReq.mshrMissLatency::cpu.inst     57823000                       # number of ReadReq MSHR miss ticks (Tick)
system.cpu.icache.ReadReq.mshrMissLatency::total     57823000                       # number of ReadReq MSHR miss ticks (Tick)
system.cpu.icache.ReadReq.mshrMissRate::cpu.inst     0.000306                       # mshr miss rate for ReadReq accesses (Ratio)
system.cpu.icache.ReadReq.mshrMissRate::total     0.000306                       # mshr miss rate for ReadReq accesses (Ratio)
system.cpu.icache.ReadReq.avgMshrMissLatency::cpu.inst 61448.459086                       # average ReadReq mshr miss latency ((Tick/Count))
system.cpu.icache.ReadReq.avgMshrMissLatency::total 61448.459086                       # average ReadReq mshr miss latency ((Tick/Count))
system.cpu.icache.power_state.pwrStateResidencyTicks::UNDEFINED  88282490500                       # Cumulative time (in ticks) in various power states (Tick)
system.cpu.icache.tags.tagsInUse           495.774056                       # Average ticks per tags in use ((Tick/Count))
system.cpu.icache.tags.totalRefs              3075958                       # Total number of references to valid blocks. (Count)
system.cpu.icache.tags.sampledRefs                941                       # Sample count of references to valid blocks. (Count)
system.cpu.icache.tags.avgRefs            3268.818278                       # Average number of references to valid blocks. ((Count/Count))
system.cpu.icache.tags.warmupTick               77000                       # The tick when the warmup percentage was hit. (Tick)
system.cpu.icache.tags.occupancies::cpu.inst   495.774056                       # Average occupied blocks per tick, per requestor ((Count/Tick))
system.cpu.icache.tags.avgOccs::cpu.inst     0.968309                       # Average percentage of cache occupancy ((Ratio/Tick))
system.cpu.icache.tags.avgOccs::total        0.968309                       # Average percentage of cache occupancy ((Ratio/Tick))
system.cpu.icache.tags.occupanciesTaskId::1024          496                       # Occupied blocks per task id (Count)
system.cpu.icache.tags.ageTaskId_1024::4          496                       # Occupied blocks per task id, per block age (Count)
system.cpu.icache.tags.ratioOccsTaskId::1024     0.968750                       # Ratio of occupied blocks and all blocks, per task id (Ratio)
system.cpu.icache.tags.tagAccesses            6153779                       # Number of tag accesses (Count)
system.cpu.icache.tags.dataAccesses           6153779                       # Number of data accesses (Count)
system.cpu.icache.tags.power_state.pwrStateResidencyTicks::UNDEFINED  88282490500                       # Cumulative time (in ticks) in various power states (Tick)
system.cpu.iew.idleCycles                           0                       # Number of cycles IEW is idle (Cycle)
system.cpu.iew.squashCycles                     38598                       # Number of cycles IEW is squashing (Cycle)
system.cpu.iew.blockCycles                     264095                       # Number of cycles IEW is blocking (Cycle)
system.cpu.iew.unblockCycles                 75976617                       # Number of cycles IEW is unblocking (Cycle)
system.cpu.iew.dispatchedInsts               21336358                       # Number of instructions dispatched to IQ (Count)
system.cpu.iew.dispSquashedInsts                  638                       # Number of squashed instructions skipped by dispatch (Count)
system.cpu.iew.dispLoadInsts                   341717                       # Number of dispatched load instructions (Count)
system.cpu.iew.dispStoreInsts                11226274                       # Number of dispatched store instructions (Count)
system.cpu.iew.dispNonSpecInsts                    55                       # Number of dispatched non-speculative instructions (Count)
system.cpu.iew.iqFullEvents                       549                       # Number of times the IQ has become full, causing a stall (Count)
system.cpu.iew.lsqFullEvents                 75995742                       # Number of times the LSQ has become full, causing a stall (Count)
system.cpu.iew.memOrderViolationEvents             64                       # Number of memory order violations (Count)
system.cpu.iew.predictedTakenIncorrect           2417                       # Number of branches that were predicted taken incorrectly (Count)
system.cpu.iew.predictedNotTakenIncorrect         3461                       # Number of branches that were predicted not taken incorrectly (Count)
system.cpu.iew.branchMispredicts                 5878                       # Number of branch mispredicts detected at execute (Count)
system.cpu.iew.mispredictedLVP                  33701                       # mispredictedLVP (Count)
system.cpu.iew.LvpCorrect                      160025                       # LvpCorrect (Count)
system.cpu.iew.instsToCommit                 20881096                       # Cumulative count of insts sent to commit (Count)
system.cpu.iew.writebackCount                20267588                       # Cumulative count of insts written-back (Count)
system.cpu.iew.producerInst                   7942717                       # Number of instructions producing a value (Count)
system.cpu.iew.consumerInst                  10844940                       # Number of instructions consuming a value (Count)
system.cpu.iew.wbRate                        0.114788                       # Insts written-back per cycle ((Count/Cycle))
system.cpu.iew.wbFanout                      0.732389                       # Average fanout of values written-back ((Count/Count))
system.cpu.interrupts.clk_domain.clock           8000                       # Clock period in ticks (Tick)
system.cpu.itb_walker_cache.blockedCycles::no_mshrs            0                       # number of cycles access was blocked (Cycle)
system.cpu.itb_walker_cache.blockedCycles::no_targets            0                       # number of cycles access was blocked (Cycle)
system.cpu.itb_walker_cache.blockedCauses::no_mshrs            0                       # number of times access was blocked (Count)
system.cpu.itb_walker_cache.blockedCauses::no_targets            0                       # number of times access was blocked (Count)
system.cpu.itb_walker_cache.avgBlocked::no_mshrs          nan                       # average number of cycles each access was blocked ((Cycle/Count))
system.cpu.itb_walker_cache.avgBlocked::no_targets          nan                       # average number of cycles each access was blocked ((Cycle/Count))
system.cpu.itb_walker_cache.replacements            0                       # number of replacements (Count)
system.cpu.itb_walker_cache.power_state.pwrStateResidencyTicks::UNDEFINED  88282490500                       # Cumulative time (in ticks) in various power states (Tick)
system.cpu.itb_walker_cache.tags.tagsInUse            0                       # Average ticks per tags in use ((Tick/Count))
system.cpu.itb_walker_cache.tags.totalRefs            0                       # Total number of references to valid blocks. (Count)
system.cpu.itb_walker_cache.tags.sampledRefs            0                       # Sample count of references to valid blocks. (Count)
system.cpu.itb_walker_cache.tags.avgRefs          nan                       # Average number of references to valid blocks. ((Count/Count))
system.cpu.itb_walker_cache.tags.warmupTick            0                       # The tick when the warmup percentage was hit. (Tick)
system.cpu.itb_walker_cache.tags.tagAccesses            0                       # Number of tag accesses (Count)
system.cpu.itb_walker_cache.tags.dataAccesses            0                       # Number of data accesses (Count)
system.cpu.itb_walker_cache.tags.power_state.pwrStateResidencyTicks::UNDEFINED  88282490500                       # Cumulative time (in ticks) in various power states (Tick)
system.cpu.lsq0.forwLoads                        8619                       # Number of loads that had data forwarded from stores (Count)
system.cpu.lsq0.squashedLoads                  141045                       # Number of loads squashed (Count)
system.cpu.lsq0.ignoredResponses                   57                       # Number of memory responses ignored because the instruction is squashed (Count)
system.cpu.lsq0.memOrderViolation                  64                       # Number of memory ordering violations (Count)
system.cpu.lsq0.squashedStores                 735635                       # Number of stores squashed (Count)
system.cpu.lsq0.rescheduledLoads                    0                       # Number of loads that were rescheduled (Count)
system.cpu.lsq0.blockedByCache                    314                       # Number of times an access to memory failed due to the cache being blocked (Count)
system.cpu.lsq0.loadToUse::samples             200672                       # Distribution of cycle latency between the first time a load is issued and its completion (Unspecified)
system.cpu.lsq0.loadToUse::mean              6.506025                       # Distribution of cycle latency between the first time a load is issued and its completion (Unspecified)
system.cpu.lsq0.loadToUse::stdev            22.139453                       # Distribution of cycle latency between the first time a load is issued and its completion (Unspecified)
system.cpu.lsq0.loadToUse::0-9                 195050     97.20%     97.20% # Distribution of cycle latency between the first time a load is issued and its completion (Unspecified)
system.cpu.lsq0.loadToUse::10-19                  293      0.15%     97.34% # Distribution of cycle latency between the first time a load is issued and its completion (Unspecified)
system.cpu.lsq0.loadToUse::20-29                  127      0.06%     97.41% # Distribution of cycle latency between the first time a load is issued and its completion (Unspecified)
system.cpu.lsq0.loadToUse::30-39                   79      0.04%     97.45% # Distribution of cycle latency between the first time a load is issued and its completion (Unspecified)
system.cpu.lsq0.loadToUse::40-49                  118      0.06%     97.51% # Distribution of cycle latency between the first time a load is issued and its completion (Unspecified)
system.cpu.lsq0.loadToUse::50-59                  103      0.05%     97.56% # Distribution of cycle latency between the first time a load is issued and its completion (Unspecified)
system.cpu.lsq0.loadToUse::60-69                  138      0.07%     97.63% # Distribution of cycle latency between the first time a load is issued and its completion (Unspecified)
system.cpu.lsq0.loadToUse::70-79                  153      0.08%     97.70% # Distribution of cycle latency between the first time a load is issued and its completion (Unspecified)
system.cpu.lsq0.loadToUse::80-89                  329      0.16%     97.87% # Distribution of cycle latency between the first time a load is issued and its completion (Unspecified)
[...]
system.mem_ctrls.dram.perBankWrBursts::1        81061                       # Per bank write bursts (Count)
system.mem_ctrls.dram.perBankWrBursts::2        81134                       # Per bank write bursts (Count)
system.mem_ctrls.dram.perBankWrBursts::3        81118                       # Per bank write bursts (Count)
system.mem_ctrls.dram.perBankWrBursts::4        81093                       # Per bank write bursts (Count)
system.mem_ctrls.dram.perBankWrBursts::5        81208                       # Per bank write bursts (Count)
system.mem_ctrls.dram.perBankWrBursts::6        81103                       # Per bank write bursts (Count)
system.mem_ctrls.dram.perBankWrBursts::7        81010                       # Per bank write bursts (Count)
system.mem_ctrls.dram.perBankWrBursts::8        80998                       # Per bank write bursts (Count)
system.mem_ctrls.dram.perBankWrBursts::9        80965                       # Per bank write bursts (Count)
system.mem_ctrls.dram.perBankWrBursts::10        81065                       # Per bank write bursts (Count)
system.mem_ctrls.dram.perBankWrBursts::11        81061                       # Per bank write bursts (Count)
system.mem_ctrls.dram.perBankWrBursts::12        81111                       # Per bank write bursts (Count)
system.mem_ctrls.dram.perBankWrBursts::13        80978                       # Per bank write bursts (Count)
system.mem_ctrls.dram.perBankWrBursts::14        81050                       # Per bank write bursts (Count)
system.mem_ctrls.dram.perBankWrBursts::15        81052                       # Per bank write bursts (Count)
system.mem_ctrls.dram.totQLat             12373483500                       # Total ticks spent queuing (Tick)
system.mem_ctrls.dram.totBusLat            6503775000                       # Total ticks spent in databus transfers (Tick)
system.mem_ctrls.dram.totMemAccLat        36762639750                       # Total ticks spent from burst creation until serviced by the DRAM (Tick)
system.mem_ctrls.dram.avgQLat                 9512.54                       # Average queueing delay per DRAM burst ((Tick/Count))
system.mem_ctrls.dram.avgBusLat               5000.00                       # Average bus latency per DRAM burst ((Tick/Count))
system.mem_ctrls.dram.avgMemAccLat           28262.54                       # Average memory access latency per DRAM burst ((Tick/Count))
system.mem_ctrls.dram.readRowHits             1208376                       # Number of row buffer hits during reads (Count)
system.mem_ctrls.dram.writeRowHits            1205931                       # Number of row buffer hits during writes (Count)
system.mem_ctrls.dram.readRowHitRate            92.90                       # Row buffer hit rate for reads (Ratio)
system.mem_ctrls.dram.writeRowHitRate           92.98                       # Row buffer hit rate for writes (Ratio)
system.mem_ctrls.dram.bytesPerActivate::samples       183370                       # Bytes accessed per row activation (Byte)
system.mem_ctrls.dram.bytesPerActivate::mean   906.640606                       # Bytes accessed per row activation (Byte)
system.mem_ctrls.dram.bytesPerActivate::gmean   826.108471                       # Bytes accessed per row activation (Byte)
system.mem_ctrls.dram.bytesPerActivate::stdev   256.435831                       # Bytes accessed per row activation (Byte)
system.mem_ctrls.dram.bytesPerActivate::0-127         3454      1.88%      1.88% # Bytes accessed per row activation (Byte)
system.mem_ctrls.dram.bytesPerActivate::128-255         5837      3.18%      5.07% # Bytes accessed per row activation (Byte)
system.mem_ctrls.dram.bytesPerActivate::256-383         5216      2.84%      7.91% # Bytes accessed per row activation (Byte)
system.mem_ctrls.dram.bytesPerActivate::384-511         5403      2.95%     10.86% # Bytes accessed per row activation (Byte)
system.mem_ctrls.dram.bytesPerActivate::512-639         5831      3.18%     14.04% # Bytes accessed per row activation (Byte)
system.mem_ctrls.dram.bytesPerActivate::640-767         5229      2.85%     16.89% # Bytes accessed per row activation (Byte)
system.mem_ctrls.dram.bytesPerActivate::768-895         4588      2.50%     19.39% # Bytes accessed per row activation (Byte)
system.mem_ctrls.dram.bytesPerActivate::896-1023         4605      2.51%     21.90% # Bytes accessed per row activation (Byte)
system.mem_ctrls.dram.bytesPerActivate::1024-1151       143207     78.10%    100.00% # Bytes accessed per row activation (Byte)
system.mem_ctrls.dram.bytesPerActivate::total       183370                       # Bytes accessed per row activation (Byte)
system.mem_ctrls.dram.bytesRead              83248320                       # Total bytes read (Byte)
system.mem_ctrls.dram.bytesWritten           83003072                       # Total bytes written (Byte)
system.mem_ctrls.dram.avgRdBW              942.976569                       # Average DRAM read bandwidth in MiBytes/s ((Byte/Second))
system.mem_ctrls.dram.avgWrBW              940.198578                       # Average DRAM write bandwidth in MiBytes/s ((Byte/Second))
system.mem_ctrls.dram.peakBW                 12800.00                       # Theoretical peak bandwidth in MiByte/s ((Byte/Second))
system.mem_ctrls.dram.busUtil                   14.71                       # Data bus utilization in percentage (Ratio)
system.mem_ctrls.dram.busUtilRead                7.37                       # Data bus utilization in percentage for reads (Ratio)
system.mem_ctrls.dram.busUtilWrite               7.35                       # Data bus utilization in percentage for writes (Ratio)
system.mem_ctrls.dram.pageHitRate               92.94                       # Row buffer hit rate, read and write combined (Ratio)
system.mem_ctrls.dram.power_state.pwrStateResidencyTicks::UNDEFINED  88282490500                       # Cumulative time (in ticks) in various power states (Tick)
system.mem_ctrls.dram.rank0.actEnergy       654588060                       # Energy for activate commands per rank (pJ) (Joule)
system.mem_ctrls.dram.rank0.preEnergy       347921805                       # Energy for precharge commands per rank (pJ) (Joule)
system.mem_ctrls.dram.rank0.readEnergy     4642156680                       # Energy for read commands per rank (pJ) (Joule)
system.mem_ctrls.dram.rank0.writeEnergy    3385916460                       # Energy for write commands per rank (pJ) (Joule)
system.mem_ctrls.dram.rank0.refreshEnergy 6968788320.000001                       # Energy for refresh commands per rank (pJ) (Joule)
system.mem_ctrls.dram.rank0.actBackEnergy  30760615440                       # Energy for active background per rank (pJ) (Joule)
system.mem_ctrls.dram.rank0.preBackEnergy   7996800480                       # Energy for precharge background per rank (pJ) (Joule)
system.mem_ctrls.dram.rank0.actPowerDownEnergy            0                       # Energy for active power-down per rank (pJ) (Joule)
system.mem_ctrls.dram.rank0.prePowerDownEnergy            0                       # Energy for precharge power-down per rank (pJ) (Joule)
system.mem_ctrls.dram.rank0.selfRefreshEnergy            0                       # Energy for self refresh per rank (pJ) (Joule)
system.mem_ctrls.dram.rank0.totalEnergy   54756787245                       # Total energy per rank (pJ) (Joule)
system.mem_ctrls.dram.rank0.averagePower   620.245158                       # Core power per rank (mW) (Watt)
system.mem_ctrls.dram.rank0.totalIdleTime            0                       # Total Idle time Per DRAM Rank (Tick)
system.mem_ctrls.dram.rank0.pwrStateTime::IDLE  19940019000                       # Time in different power states (Tick)
system.mem_ctrls.dram.rank0.pwrStateTime::REF   2947880000                       # Time in different power states (Tick)
system.mem_ctrls.dram.rank0.pwrStateTime::SREF            0                       # Time in different power states (Tick)
system.mem_ctrls.dram.rank0.pwrStateTime::PRE_PDN            0                       # Time in different power states (Tick)
system.mem_ctrls.dram.rank0.pwrStateTime::ACT  65394591500                       # Time in different power states (Tick)
system.mem_ctrls.dram.rank0.pwrStateTime::ACT_PDN            0                       # Time in different power states (Tick)
system.mem_ctrls.dram.rank1.actEnergy       654680880                       # Energy for activate commands per rank (pJ) (Joule)
system.mem_ctrls.dram.rank1.preEnergy       347967345                       # Energy for precharge commands per rank (pJ) (Joule)
system.mem_ctrls.dram.rank1.readEnergy     4645234020                       # Energy for read commands per rank (pJ) (Joule)
system.mem_ctrls.dram.rank1.writeEnergy    3384021600                       # Energy for write commands per rank (pJ) (Joule)
system.mem_ctrls.dram.rank1.refreshEnergy 6968788320.000001                       # Energy for refresh commands per rank (pJ) (Joule)
system.mem_ctrls.dram.rank1.actBackEnergy  30759031410                       # Energy for active background per rank (pJ) (Joule)
system.mem_ctrls.dram.rank1.preBackEnergy   7998134400                       # Energy for precharge background per rank (pJ) (Joule)
system.mem_ctrls.dram.rank1.actPowerDownEnergy            0                       # Energy for active power-down per rank (pJ) (Joule)
system.mem_ctrls.dram.rank1.prePowerDownEnergy            0                       # Energy for precharge power-down per rank (pJ) (Joule)
system.mem_ctrls.dram.rank1.selfRefreshEnergy            0                       # Energy for self refresh per rank (pJ) (Joule)
system.mem_ctrls.dram.rank1.totalEnergy   54757857975                       # Total energy per rank (pJ) (Joule)
system.mem_ctrls.dram.rank1.averagePower   620.257286                       # Core power per rank (mW) (Watt)
system.mem_ctrls.dram.rank1.totalIdleTime            0                       # Total Idle time Per DRAM Rank (Tick)
system.mem_ctrls.dram.rank1.pwrStateTime::IDLE  19944474250                       # Time in different power states (Tick)
system.mem_ctrls.dram.rank1.pwrStateTime::REF   2947880000                       # Time in different power states (Tick)
system.mem_ctrls.dram.rank1.pwrStateTime::SREF            0                       # Time in different power states (Tick)
system.mem_ctrls.dram.rank1.pwrStateTime::PRE_PDN            0                       # Time in different power states (Tick)
system.mem_ctrls.dram.rank1.pwrStateTime::ACT  65390136250                       # Time in different power states (Tick)
system.mem_ctrls.dram.rank1.pwrStateTime::ACT_PDN            0                       # Time in different power states (Tick)
system.mem_ctrls.power_state.pwrStateResidencyTicks::UNDEFINED  88282490500                       # Cumulative time (in ticks) in various power states (Tick)
system.membus.transDist::ReadResp                3340                       # Transaction distribution (Count)
system.membus.transDist::WritebackDirty       1296503                       # Transaction distribution (Count)
system.membus.transDist::WritebackClean           445                       # Transaction distribution (Count)
system.membus.transDist::CleanEvict              2307                       # Transaction distribution (Count)
system.membus.transDist::ReadExReq            1297436                       # Transaction distribution (Count)
system.membus.transDist::ReadExResp           1297435                       # Transaction distribution (Count)
system.membus.transDist::ReadCleanReq             941                       # Transaction distribution (Count)
system.membus.transDist::ReadSharedReq           2399                       # Transaction distribution (Count)
system.membus.pktCount_system.cpu.icache.mem_side_port::system.mem_ctrls.port         2327                       # Packet count per connected requestor and responder (Count)
system.membus.pktCount_system.cpu.icache.mem_side_port::total         2327                       # Packet count per connected requestor and responder (Count)
system.membus.pktCount_system.cpu.dcache.mem_side_port::system.mem_ctrls.port      3898479                       # Packet count per connected requestor and responder (Count)
system.membus.pktCount_system.cpu.dcache.mem_side_port::total      3898479                       # Packet count per connected requestor and responder (Count)
system.membus.pktCount::total                 3900806                       # Packet count per connected requestor and responder (Count)
system.membus.pktSize_system.cpu.icache.mem_side_port::system.mem_ctrls.port        88704                       # Cumulative packet size per connected requestor and responder (Byte)
system.membus.pktSize_system.cpu.icache.mem_side_port::total        88704                       # Cumulative packet size per connected requestor and responder (Byte)
system.membus.pktSize_system.cpu.dcache.mem_side_port::system.mem_ctrls.port    166165568                       # Cumulative packet size per connected requestor and responder (Byte)
system.membus.pktSize_system.cpu.dcache.mem_side_port::total    166165568                       # Cumulative packet size per connected requestor and responder (Byte)
system.membus.pktSize::total                166254272                       # Cumulative packet size per connected requestor and responder (Byte)
system.membus.snoops                                0                       # Total snoops (Count)
system.membus.snoopTraffic                          0                       # Total snoop traffic (Byte)
system.membus.snoopFanout::samples            1300776                       # Request fanout histogram (Count)
system.membus.snoopFanout::mean              0.000003                       # Request fanout histogram (Count)
system.membus.snoopFanout::stdev             0.001754                       # Request fanout histogram (Count)
system.membus.snoopFanout::underflows               0      0.00%      0.00% # Request fanout histogram (Count)
system.membus.snoopFanout::0                  1300772    100.00%    100.00% # Request fanout histogram (Count)
system.membus.snoopFanout::1                        4      0.00%    100.00% # Request fanout histogram (Count)
system.membus.snoopFanout::2                        0      0.00%    100.00% # Request fanout histogram (Count)
system.membus.snoopFanout::3                        0      0.00%    100.00% # Request fanout histogram (Count)
system.membus.snoopFanout::4                        0      0.00%    100.00% # Request fanout histogram (Count)
system.membus.snoopFanout::overflows                0      0.00%    100.00% # Request fanout histogram (Count)
system.membus.snoopFanout::min_value                0                       # Request fanout histogram (Count)
system.membus.snoopFanout::max_value                1                       # Request fanout histogram (Count)
system.membus.snoopFanout::total              1300776                       # Request fanout histogram (Count)
system.membus.power_state.pwrStateResidencyTicks::UNDEFINED  88282490500                       # Cumulative time (in ticks) in various power states (Tick)
system.membus.reqLayer2.occupancy          7788892000                       # Layer occupancy (ticks) (Tick)
system.membus.reqLayer2.utilization               0.1                       # Layer utilization (Ratio)
system.membus.respLayer1.occupancy            4988000                       # Layer occupancy (ticks) (Tick)
system.membus.respLayer1.utilization              0.0                       # Layer utilization (Ratio)
system.membus.respLayer2.occupancy         6841995250                       # Layer occupancy (ticks) (Tick)
system.membus.respLayer2.utilization              0.1                       # Layer utilization (Ratio)
system.membus.snoop_filter.totRequests        2600031                       # Total number of requests made to the snoop filter. (Count)
system.membus.snoop_filter.hitSingleRequests      1299255                       # Number of requests hitting in the snoop filter with a single holder of the requested data. (Count)
system.membus.snoop_filter.hitMultiRequests            4                       # Number of requests hitting in the snoop filter with multiple (>1) holders of the requested data. (Count)
system.membus.snoop_filter.totSnoops                0                       # Total number of snoops made to the snoop filter. (Count)
system.membus.snoop_filter.hitSingleSnoops            0                       # Number of snoops hitting in the snoop filter with a single holder of the requested data. (Count)
system.membus.snoop_filter.hitMultiSnoops            0                       # Number of snoops hitting in the snoop filter with multiple (>1) holders of the requested data. (Count)
system.voltage_domain.voltage                       1                       # Voltage in Volts (Volt)
system.workload.inst.arm                            0                       # number of arm instructions executed (Count)
system.workload.inst.quiesce                        0                       # number of quiesce instructions executed (Count)
system.cpu.loadValPred.constant_verification_unit.constLoadHits       125983                       # Number of loads marked constant that hit in the CVU CAM (Unspecified)
system.cpu.loadValPred.constant_verification_unit.constLoadMisses        30896                       # Number of loads marked constant that missed in the CVU CAM (Unspecified)
system.cpu.loadValPred.constant_verification_unit.numCAMReplacements        27106                       # Number of CVU CAM entries replaced (Unspecified)
system.cpu.loadValPred.constant_verification_unit.numLoadAccesses       156879                       # Number of loads marked constant which accessed the CVU (Unspecified)
system.cpu.loadValPred.constant_verification_unit.numStoreAccesses     10546103                       # Number of store instructions which accessed the CVU (Unspecified)
system.cpu.loadValPred.constant_verification_unit.numStoreHits         3719                       # Number of stores that hit in the CVU CAM (Unspecified)
system.cpu.loadValPred.constant_verification_unit.numStoreMisses     10542384                       # Number of stores that missed in the CVU CAM (Unspecified)
system.cpu.loadValPred.correctTotal            160025                       # Number predictions corrects for predictable verification (Unspecified)
system.cpu.loadValPred.numConstLoads           159530                       # Number of loads classified as constant (Unspecified)
system.cpu.loadValPred.numConstLoadsCorrect       125983                       # Number of constant loads correctly predicted (Unspecified)
system.cpu.loadValPred.numConstLoadsMispredicted        30896                       # Number of constant loads incorrectly predicted (Unspecified)
system.cpu.loadValPred.numConstValOne           13977                       # Number of constant loads with value 1 (Unspecified)
system.cpu.loadValPred.numConstValZero          27320                       # Number of constant loads with value 0 (Unspecified)
system.cpu.loadValPred.numPredictableLoads        38368                       # Number of loads classified as predictable (Unspecified)
system.cpu.loadValPred.numPredictableLoadsCorrect        30803                       # Number of loads correctly classified as predictable (Unspecified)
system.cpu.loadValPred.numPredictableLoadsIncorrect         6044                       # Number of loads incorrectly classified as predictable (Unspecified)
system.cpu.loadValPred.totalLoads              270540                       # Total loads processed by the Load value predictor (Unspecified)
system.cpu.loadValPred.valueLocalityNumerator       174833                       # Number predictions corrects (Unspecified)

---------- End Simulation Statistics   ----------
